! OpenDSS script generated from multiconductor network
Clear

New Circuit.mc_network basekv=12.0 pu=1.000000 angle=0.00 frequency=60.0 phases=3 Mvasc3=143993 Mvasc1=47997.6
~ bus1=-8888882174019.1.2.3

! Line codes
New LineCode.1000_CLP_3PH_12KV_3 nphases=3 units=km Rmatrix=[ 0.017131 | 0 0.017131 | 0 0 0.017131 ] Xmatrix=[ 0.025931 | 0 0.025931 | 0 0 0.025931 ] Cmatrix=[ 0 | 0 0 | 0 0 0 ]
New LineCode.336_ACSR_3PH_12KV_3 nphases=3 units=km Rmatrix=[ 0.001159 | 0 0.001159 | 0 0 0.001159 ] Xmatrix=[ 0.002597 | 0 0.002597 | 0 0 0.002597 ] Cmatrix=[ 0 | 0 0 | 0 0 0 ]
New LineCode.336_ACSR_3PH_336_ACSR_N_12KV_4 nphases=4 units=km Rmatrix=[ 0.018279 | 0 0.018279 | 0 0 0.018279 | 0 0 0 0.018279 ] Xmatrix=[ 0.036453 | 0 0.036453 | 0 0 0.036453 | 0 0 0 0.036453 ] Cmatrix=[ 0 | 0 0 | 0 0 0 | 0 0 0 0 ]
New LineCode.2_CLP_3PH_12KV_3 nphases=3 units=km Rmatrix=[ 0.074339 | 0 0.074339 | 0 0 0.074339 ] Xmatrix=[ 0.015669 | 0 0.015669 | 0 0 0.015669 ] Cmatrix=[ 0 | 0 0 | 0 0 0 ]
New LineCode.1/0_JCN_2PH_12KV_2 nphases=2 units=km Rmatrix=[ 0.000951 | 0 0.000951 ] Xmatrix=[ 0.000291 | 0 0.000291 ] Cmatrix=[ 0 | 0 0 ]
New LineCode.2_AL_2PH_12KV_2 nphases=2 units=km Rmatrix=[ 0.058605 | 0 0.058605 ] Xmatrix=[ 0.012353 | 0 0.012353 ] Cmatrix=[ 0 | 0 0 ]
New LineCode.2_CLP_1PH_12KV_1 nphases=1 units=km Rmatrix=[ 0.199964 ] Xmatrix=[ 0.042149 ] Cmatrix=[ 0 ]
New LineCode.350_AL_3PH_12KV_3 nphases=3 units=km Rmatrix=[ 0.017733 | 0 0.017733 | 0 0 0.017733 ] Xmatrix=[ 0.013474 | 0 0.013474 | 0 0 0.013474 ] Cmatrix=[ 0 | 0 0 | 0 0 0 ]
New LineCode.350_AL_2PH_12KV_2 nphases=2 units=km Rmatrix=[ 0.009568 | 0 0.009568 ] Xmatrix=[ 0.007269 | 0 0.007269 ] Cmatrix=[ 0 | 0 0 ]
New LineCode.4_ACSR_2PH_12KV_2 nphases=2 units=km Rmatrix=[ 0.066584 | 0 0.066584 ] Xmatrix=[ 0.024433 | 0 0.024433 ] Cmatrix=[ 0 | 0 0 ]
New LineCode.2_ACSR_2PH_12KV_2 nphases=2 units=km Rmatrix=[ 0.093247 | 0 0.093247 ] Xmatrix=[ 0.050131 | 0 0.050131 ] Cmatrix=[ 0 | 0 0 ]
New LineCode.1/0_ACSR_3PH_1/0_ACSR_N_12KV_4 nphases=4 units=km Rmatrix=[ 0.029312 | 0 0.029312 | 0 0 0.029312 | 0 0 0 0.029312 ] Xmatrix=[ 0.021184 | 0 0.021184 | 0 0 0.021184 | 0 0 0 0.021184 ] Cmatrix=[ 0 | 0 0 | 0 0 0 | 0 0 0 0 ]
New LineCode.2_ACSR_3PH_2_ACSR_N_12KV_4 nphases=4 units=km Rmatrix=[ 0.08299 | 0 0.08299 | 0 0 0.08299 | 0 0 0 0.08299 ] Xmatrix=[ 0.040208 | 0 0.040208 | 0 0 0.040208 | 0 0 0 0.040208 ] Cmatrix=[ 0 | 0 0 | 0 0 0 | 0 0 0 0 ]
New LineCode.2_ACSR_3PH_12KV_3 nphases=3 units=km Rmatrix=[ 0.179529 | 0 0.179529 | 0 0 0.179529 ] Xmatrix=[ 0.096517 | 0 0.096517 | 0 0 0.096517 ] Cmatrix=[ 0 | 0 0 | 0 0 0 ]
New LineCode.4_ACSR_3PH_4_ACSR_N_12KV_4 nphases=4 units=km Rmatrix=[ 0.158964 | 0 0.158964 | 0 0 0.158964 | 0 0 0 0.158964 ] Xmatrix=[ 0.053469 | 0 0.053469 | 0 0 0.053469 | 0 0 0 0.053469 ] Cmatrix=[ 0 | 0 0 | 0 0 0 | 0 0 0 0 ]
New LineCode.1/0_ACSR_2PH_12KV_2 nphases=2 units=km Rmatrix=[ 0.058416 | 0 0.058416 ] Xmatrix=[ 0.046511 | 0 0.046511 ] Cmatrix=[ 0 | 0 0 ]
New LineCode.2_AL_3PH_12KV_3 nphases=3 units=km Rmatrix=[ 0.002497 | 0 0.002497 | 0 0 0.002497 ] Xmatrix=[ 0.000526 | 0 0.000526 | 0 0 0.000526 ] Cmatrix=[ 0 | 0 0 | 0 0 0 ]
New LineCode.4_ACSR_3PH_12KV_3 nphases=3 units=km Rmatrix=[ 0.110892 | 0 0.110892 | 0 0 0.110892 ] Xmatrix=[ 0.040691 | 0 0.040691 | 0 0 0.040691 ] Cmatrix=[ 0 | 0 0 | 0 0 0 ]
New LineCode.350_CLP_3PH_12KV_3 nphases=3 units=km Rmatrix=[ 0.00565 | 0 0.00565 | 0 0 0.00565 ] Xmatrix=[ 0.004293 | 0 0.004293 | 0 0 0.004293 ] Cmatrix=[ 0 | 0 0 | 0 0 0 ]
New LineCode.1/0_ACSR_3PH_12KV_3 nphases=3 units=km Rmatrix=[ 0.153687 | 0 0.153687 | 0 0 0.153687 ] Xmatrix=[ 0.122365 | 0 0.122365 | 0 0 0.122365 ] Cmatrix=[ 0 | 0 0 | 0 0 0 ]
New LineCode.4_ACSR_2PH_4_ACSR_N_12KV_3_N nphases=3 units=km Rmatrix=[ 0.003847 | 0 0.003847 | 0 0 0.003847 ] Xmatrix=[ 0.001294 | 0 0.001294 | 0 0 0.001294 ] Cmatrix=[ 0 | 0 0 | 0 0 0 ]
New LineCode.653_ACSR_3PH_653_ACSR_N_12KV_4 nphases=4 units=km Rmatrix=[ 0.000263 | 0 0.000263 | 0 0 0.000263 | 0 0 0 0.000263 ] Xmatrix=[ 0.000893 | 0 0.000893 | 0 0 0.000893 | 0 0 0 0.000893 ] Cmatrix=[ 0 | 0 0 | 0 0 0 | 0 0 0 0 ]
New LineCode.2_ACSR_2PH_2_ACSR_N_12KV_3_N nphases=3 units=km Rmatrix=[ 0.033854 | 0 0.033854 | 0 0 0.033854 ] Xmatrix=[ 0.016402 | 0 0.016402 | 0 0 0.016402 ] Cmatrix=[ 0 | 0 0 | 0 0 0 ]
New LineCode.UNK_UNK_3PH_12KV_4 nphases=4 units=km Rmatrix=[ 0.016449 | 0 0.016449 | 0 0 0.016449 | 0 0 0 0.016449 ] Xmatrix=[ 0.032803 | 0 0.032803 | 0 0 0.032803 | 0 0 0 0.032803 ] Cmatrix=[ 0 | 0 0 | 0 0 0 | 0 0 0 0 ]
New LineCode.1/0_JCN_3PH_12KV_3 nphases=3 units=km Rmatrix=[ 0.050982 | 0 0.050982 | 0 0 0.050982 ] Xmatrix=[ 0.015582 | 0 0.015582 | 0 0 0.015582 ] Cmatrix=[ 0 | 0 0 | 0 0 0 ]
New LineCode.2_JCN_3PH_12KV_3 nphases=3 units=km Rmatrix=[ 0.001841 | 0 0.001841 | 0 0 0.001841 ] Xmatrix=[ 0.000388 | 0 0.000388 | 0 0 0.000388 ] Cmatrix=[ 0 | 0 0 | 0 0 0 ]
New LineCode.1/0_ATW_3PH_12KV_3 nphases=3 units=km Rmatrix=[ 1e-05 | 0 1e-05 | 0 0 1e-05 ] Xmatrix=[ 1e-05 | 0 1e-05 | 0 0 1e-05 ] Cmatrix=[ 0 | 0 0 | 0 0 0 ]

! Lines
New Line.GS2520-3$ND196115233 phases=3 Bus1=106328509.1.2.3 Bus2=196115233.1.2.3 LineCode=1000_CLP_3PH_12KV_3 Length=0.143755 units=km
New Line.4688627E$GS2520-4 phases=3 Bus1=106328517.1.2.3 Bus2=106328720.1.2.3 LineCode=1000_CLP_3PH_12KV_3 Length=0.070083 units=km
New Line.ND196115233$4688626E phases=3 Bus1=196115233.1.2.3 Bus2=106414129.1.2.3 LineCode=1000_CLP_3PH_12KV_3 Length=0.070044 units=km
New Line.4688627E$ND106328742 phases=3 Bus1=106328719.1.2.3 Bus2=106328742.1.2.3 LineCode=336_ACSR_3PH_12KV_3 Length=0.022023 units=km
New Line.4688626E$ND106414151 phases=4 Bus1=106414128.0.1.2.3 Bus2=106414151.0.1.2.3 LineCode=336_ACSR_3PH_336_ACSR_N_12KV_4 Length=0.019807 units=km
New Line.4005610E$PME1660-4 phases=3 Bus1=40893787.1.2.3 Bus2=40893814.1.2.3 LineCode=2_CLP_3PH_12KV_3 Length=0.051655 units=km
New Line.238189670$P5753004-2 phases=2 Bus1=238189673.1.3 Bus2=238189988.1.3 LineCode=1/0_JCN_2PH_12KV_2 Length=0.001829 units=km
New Line.279495370$P5000493-A phases=2 Bus1=40959502.1.2 Bus2=279495373.1.2 LineCode=2_AL_2PH_12KV_2 Length=0.001732 units=km
New Line.175222888$P5533374-2 phases=1 Bus1=87181165.2 Bus2=175222891.2 LineCode=2_CLP_1PH_12KV_1 Length=0.001378 units=km
New Line.PME1660-1$P5423696-1 phases=1 Bus1=40893842.1 Bus2=40894015.1 LineCode=2_CLP_1PH_12KV_1 Length=0.087134 units=km
New Line.1553081E$ND40984861 phases=3 Bus1=40892256.1.2.3 Bus2=40984861.1.2.3 LineCode=350_AL_3PH_12KV_3 Length=0.079866 units=km
New Line.PME1660-3$ND41026486 phases=1 Bus1=40893833.2 Bus2=41026486.2 LineCode=2_CLP_1PH_12KV_1 Length=0.343035 units=km
New Line.ND41026486$183399212 phases=1 Bus1=41026486.2 Bus2=183399214.2 LineCode=2_CLP_1PH_12KV_1 Length=0.006071 units=km
New Line.ND40984861$BS1795-1 phases=2 Bus1=40984861.1.2 Bus2=40892272.1.2 LineCode=350_AL_2PH_12KV_2 Length=0.012814 units=km
New Line.P5458057-1$ND41026486 phases=1 Bus1=41026486.2 Bus2=40958247.2 LineCode=2_CLP_1PH_12KV_1 Length=0.134554 units=km
New Line.ND40984861$ND40985552 phases=3 Bus1=40984861.1.2.3 Bus2=40985552.1.2.3 LineCode=350_AL_3PH_12KV_3 Length=0.213646 units=km
New Line.ND40985552$BS1796-1 phases=3 Bus1=40985552.1.2.3 Bus2=40892539.1.2.3 LineCode=350_AL_3PH_12KV_3 Length=0.017873 units=km
New Line.ND40985552$BS1797-1 phases=2 Bus1=40985552.1.3 Bus2=40892589.1.3 LineCode=350_AL_2PH_12KV_2 Length=0.073496 units=km
New Line.2279428E$P5331730-1 phases=3 Bus1=16350949.1.2.3 Bus2=16364819.1.2.3 LineCode=350_AL_3PH_12KV_3 Length=0.079641 units=km
New Line.183399212$P5466212-1 phases=1 Bus1=183399215.2 Bus2=40957805.2 LineCode=2_CLP_1PH_12KV_1 Length=0.001176 units=km
New Line.P5423697-1$P5423696-2 phases=1 Bus1=40894024.1 Bus2=40958100.1 LineCode=2_CLP_1PH_12KV_1 Length=0.178776 units=km
New Line.BS1795-1$ND40984797 phases=2 Bus1=40892273.1.2 Bus2=40984797.1.2 LineCode=350_AL_2PH_12KV_2 Length=0.003557 units=km
New Line.197332278$ND40984797 phases=2 Bus1=40984797.1.2 Bus2=197332280.1.2 LineCode=350_AL_2PH_12KV_2 Length=0.067505 units=km
New Line.BS1796-1$P5325531-1 phases=2 Bus1=40892538.1.3 Bus2=40893574.1.3 LineCode=350_AL_2PH_12KV_2 Length=0.067383 units=km
New Line.ND40984797$ND40985115 phases=2 Bus1=40984797.1.2 Bus2=40985115.1.2 LineCode=350_AL_2PH_12KV_2 Length=0.015051 units=km
New Line.BS1797-1$ND40986098 phases=2 Bus1=40892588.1.3 Bus2=40986098.1.3 LineCode=350_AL_2PH_12KV_2 Length=0.030985 units=km
New Line.B5325528-2$ND40985115 phases=2 Bus1=40985115.1.2 Bus2=40892791.1.2 LineCode=350_AL_2PH_12KV_2 Length=0.051359 units=km
New Line.B5325542-1$ND40986098 phases=2 Bus1=40986098.1.3 Bus2=40892854.1.3 LineCode=350_AL_2PH_12KV_2 Length=0.014378 units=km
New Line.B5332118-2$ND40985115 phases=2 Bus1=40985115.1.2 Bus2=40960271.1.2 LineCode=350_AL_2PH_12KV_2 Length=0.045642 units=km
New Line.ND41025144$ND40986098 phases=2 Bus1=40986098.1.3 Bus2=41025144.1.3 LineCode=350_AL_2PH_12KV_2 Length=0.045418 units=km
New Line.279495380$279495370 phases=2 Bus1=279495372.1.2 Bus2=279495382.1.2 LineCode=2_AL_2PH_12KV_2 Length=0.052405 units=km
New Line.183399224$P5466212-2 phases=1 Bus1=40957814.2 Bus2=183399227.2 LineCode=2_CLP_1PH_12KV_1 Length=0.001595 units=km
New Line.4265459E$206818299 phases=2 Bus1=73703027.2.3 Bus2=206818301.2.3 LineCode=2_AL_2PH_12KV_2 Length=0.169964 units=km
New Line.197332278$P5332114-2 phases=2 Bus1=197332281.1.2 Bus2=40892475.1.2 LineCode=350_AL_2PH_12KV_2 Length=0.000695 units=km
New Line.B5325541-2$ND41025144 phases=2 Bus1=41025144.1.3 Bus2=40892935.1.3 LineCode=350_AL_2PH_12KV_2 Length=0.059977 units=km
New Line.B5325539-2$ND41025144 phases=2 Bus1=41025144.1.3 Bus2=40893007.1.3 LineCode=350_AL_2PH_12KV_2 Length=0.036674 units=km
New Line.P5423697-2$ND40985257 phases=1 Bus1=40958109.1 Bus2=40985257.1 LineCode=2_CLP_1PH_12KV_1 Length=0.003693 units=km
New Line.P5325531-2$P5325532-1 phases=2 Bus1=40893583.1.3 Bus2=40893502.1.3 LineCode=350_AL_2PH_12KV_2 Length=0.099048 units=km
New Line.P5423699-1$ND40985257 phases=1 Bus1=40985257.1 Bus2=40893943.1 LineCode=2_CLP_1PH_12KV_1 Length=0.103553 units=km
New Line.ND40985257$P5431666-1 phases=1 Bus1=40985257.1 Bus2=40957661.1 LineCode=2_CLP_1PH_12KV_1 Length=0.156077 units=km
New Line.175222888$175222925 phases=1 Bus1=175222890.2 Bus2=175222927.2 LineCode=2_CLP_1PH_12KV_1 Length=0.166819 units=km
New Line.P5753004-1$238189680 phases=2 Bus1=238189979.1.3 Bus2=238189683.1.3 LineCode=1/0_JCN_2PH_12KV_2 Length=0.001179 units=km
New Line.183399167$183399224 phases=1 Bus1=183399226.2 Bus2=183399169.2 LineCode=2_CLP_1PH_12KV_1 Length=0.083195 units=km
New Line.B5332118-1$ND40985848 phases=2 Bus1=40960262.1.2 Bus2=40985848.1.2 LineCode=350_AL_2PH_12KV_2 Length=0.036569 units=km
New Line.206818299$P5442431-1 phases=2 Bus1=206818302.2.3 Bus2=73702989.2.3 LineCode=2_AL_2PH_12KV_2 Length=0.005674 units=km
New Line.PS0980$ND106328742 phases=4 Bus1=106328742.0.1.2.3 Bus2=106328685.0.1.2.3 LineCode=336_ACSR_3PH_336_ACSR_N_12KV_4 Length=0.019824 units=km
New Line.ND106328742$2279439E phases=4 Bus1=106328742.0.1.2.3 Bus2=16350464.0.1.2.3 LineCode=336_ACSR_3PH_336_ACSR_N_12KV_4 Length=0.065046 units=km
New Line.ND106414151$PS0639 phases=4 Bus1=106414151.0.1.2.3 Bus2=16459415.0.1.2.3 LineCode=336_ACSR_3PH_336_ACSR_N_12KV_4 Length=0.012811 units=km
New Line.4005608E$ND106414151 phases=4 Bus1=106414151.0.1.2.3 Bus2=198582525.0.1.2.3 LineCode=336_ACSR_3PH_336_ACSR_N_12KV_4 Length=0.040993 units=km
New Line.4005607E$4005608E phases=4 Bus1=198582525.0.1.2.3 Bus2=106414096.0.1.2.3 LineCode=336_ACSR_3PH_336_ACSR_N_12KV_4 Length=0.043892 units=km
New Line.2279439E$2279437E phases=4 Bus1=16350464.0.1.2.3 Bus2=16350493.0.1.2.3 LineCode=336_ACSR_3PH_336_ACSR_N_12KV_4 Length=0.155733 units=km
New Line.2279437E$2279436E phases=4 Bus1=16350493.0.1.2.3 Bus2=16350522.0.1.2.3 LineCode=336_ACSR_3PH_336_ACSR_N_12KV_4 Length=0.080418 units=km
New Line.ND41025504$4005607E phases=4 Bus1=106414096.0.1.2.3 Bus2=41025504.0.1.2.3 LineCode=336_ACSR_3PH_336_ACSR_N_12KV_4 Length=0.18376 units=km
New Line.2279436E$2279434E phases=4 Bus1=16350522.0.1.2.3 Bus2=16350551.0.1.2.3 LineCode=336_ACSR_3PH_336_ACSR_N_12KV_4 Length=0.1612 units=km
New Line.ND41025504$4005610E phases=4 Bus1=41025504.0.1.2.3 Bus2=40893786.0.1.2.3 LineCode=336_ACSR_3PH_336_ACSR_N_12KV_4 Length=0.134516 units=km
New Line.ND41025504$4005611E phases=4 Bus1=41025504.0.1.2.3 Bus2=71100470.0.1.2.3 LineCode=336_ACSR_3PH_336_ACSR_N_12KV_4 Length=0.065539 units=km
New Line.2279434E$2279433E phases=4 Bus1=16350551.0.1.2.3 Bus2=16350580.0.1.2.3 LineCode=336_ACSR_3PH_336_ACSR_N_12KV_4 Length=0.080741 units=km
New Line.2263926E$4005611E phases=4 Bus1=71100470.0.1.2.3 Bus2=40981952.0.1.2.3 LineCode=336_ACSR_3PH_336_ACSR_N_12KV_4 Length=0.051686 units=km
New Line.2279433E$ND16462190 phases=4 Bus1=16350580.0.1.2.3 Bus2=16462190.0.1.2.3 LineCode=336_ACSR_3PH_336_ACSR_N_12KV_4 Length=0.080391 units=km
New Line.2263927E$2263926E phases=4 Bus1=40981952.0.1.2.3 Bus2=40981981.0.1.2.3 LineCode=336_ACSR_3PH_336_ACSR_N_12KV_4 Length=0.05756 units=km
New Line.RCS0681$ND16462190 phases=4 Bus1=16462190.0.1.2.3 Bus2=16459440.0.1.2.3 LineCode=336_ACSR_3PH_336_ACSR_N_12KV_4 Length=0.019693 units=km
New Line.ND40984778$2263927E phases=4 Bus1=40981981.0.1.2.3 Bus2=40984778.0.1.2.3 LineCode=336_ACSR_3PH_336_ACSR_N_12KV_4 Length=0.055711 units=km
New Line.563642S$563643S phases=2 Bus1=16391868.1.3 Bus2=16413697.1.3 LineCode=4_ACSR_2PH_12KV_2 Length=0.105201 units=km
New Line.563630S$4120993E phases=2 Bus1=16461475.1.3 Bus2=16435854.1.3 LineCode=4_ACSR_2PH_12KV_2 Length=0.103083 units=km
New Line.4084992E$4517033E phases=2 Bus1=16365426.1.3 Bus2=16459207.1.3 LineCode=4_ACSR_2PH_12KV_2 Length=0.186586 units=km
New Line.BF73136$ND16462620 phases=2 Bus1=16459829.2.3 Bus2=16462620.2.3 LineCode=2_ACSR_2PH_12KV_2 Length=0.056715 units=km
New Line.226461S$1784038E phases=2 Bus1=28347865.1.3 Bus2=28277916.1.3 LineCode=4_ACSR_2PH_12KV_2 Length=0.189981 units=km
New Line.2043049E$2342582E phases=2 Bus1=108706377.2.3 Bus2=28368036.2.3 LineCode=4_ACSR_2PH_12KV_2 Length=0.121877 units=km
New Line.4668748E$PS0103 phases=4 Bus1=28277635.0.1.2.3 Bus2=28368856.0.1.2.3 LineCode=336_ACSR_3PH_336_ACSR_N_12KV_4 Length=0.097249 units=km
New Line.1553250E$ND28417726 phases=2 Bus1=28277999.1.2 Bus2=28417726.1.2 LineCode=4_ACSR_2PH_12KV_2 Length=0.061002 units=km
New Line.2043047E$4517253E phases=2 Bus1=28277425.2.3 Bus2=70425629.2.3 LineCode=4_ACSR_2PH_12KV_2 Length=0.063982 units=km
New Line.4517033E$527902S phases=2 Bus1=16459207.1.3 Bus2=15943904.1.3 LineCode=4_ACSR_2PH_12KV_2 Length=0.077115 units=km
New Line.65290S$50681CIT phases=2 Bus1=16365266.1.3 Bus2=16365241.1.3 LineCode=4_ACSR_2PH_12KV_2 Length=0.152068 units=km
New Line.ND16462620$4511566E phases=2 Bus1=16462620.2.3 Bus2=16365877.2.3 LineCode=4_ACSR_2PH_12KV_2 Length=0.11198 units=km
New Line.ND16462620$1906715E phases=2 Bus1=16462620.2.3 Bus2=16366102.2.3 LineCode=4_ACSR_2PH_12KV_2 Length=0.066682 units=km
New Line.563643S$563644S phases=2 Bus1=16413697.1.3 Bus2=16391843.1.3 LineCode=4_ACSR_2PH_12KV_2 Length=0.10799 units=km
New Line.4120993E$32118CIT phases=2 Bus1=16435854.1.3 Bus2=16435829.1.3 LineCode=4_ACSR_2PH_12KV_2 Length=0.072084 units=km
New Line.ND16462620$ND16547425 phases=2 Bus1=16462620.2.3 Bus2=16547425.2.3 LineCode=2_ACSR_2PH_12KV_2 Length=0.128409 units=km
New Line.1784038E$1984498E phases=2 Bus1=28277916.1.3 Bus2=28277716.1.3 LineCode=4_ACSR_2PH_12KV_2 Length=0.120864 units=km
New Line.ND28417726$1553248E phases=2 Bus1=28417726.1.2 Bus2=28278024.1.2 LineCode=4_ACSR_2PH_12KV_2 Length=0.085802 units=km
New Line.ND28417726$2223827E phases=2 Bus1=28417726.1.2 Bus2=28278074.1.2 LineCode=4_ACSR_2PH_12KV_2 Length=0.060895 units=km
New Line.ND40984778$1553081E phases=3 Bus1=40984778.1.2.3 Bus2=40892255.1.2.3 LineCode=336_ACSR_3PH_12KV_3 Length=0.06944 units=km
New Line.1553082E$ND40984778 phases=4 Bus1=40984778.0.1.2.3 Bus2=40982922.0.1.2.3 LineCode=336_ACSR_3PH_336_ACSR_N_12KV_4 Length=0.06944 units=km
New Line.ND104945612$1553082E phases=4 Bus1=40982922.0.1.2.3 Bus2=104945612.0.1.2.3 LineCode=336_ACSR_3PH_336_ACSR_N_12KV_4 Length=0.067544 units=km
New Line.RCS0681$ND16462706 phases=4 Bus1=16459439.0.1.2.3 Bus2=16462706.0.1.2.3 LineCode=336_ACSR_3PH_336_ACSR_N_12KV_4 Length=0.082886 units=km
New Line.ND16462706$1600879E phases=4 Bus1=16462706.0.1.2.3 Bus2=16350609.0.1.2.3 LineCode=1/0_ACSR_3PH_1/0_ACSR_N_12KV_4 Length=0.057416 units=km
New Line.ND16462706$ND16462383 phases=4 Bus1=16462706.0.1.2.3 Bus2=16462383.0.1.2.3 LineCode=2_ACSR_3PH_2_ACSR_N_12KV_4 Length=0.137451 units=km
New Line.4607153E$ND104945612 phases=4 Bus1=104945612.0.1.2.3 Bus2=40892245.0.1.2.3 LineCode=336_ACSR_3PH_336_ACSR_N_12KV_4 Length=0.066349 units=km
New Line.527649ST1$ND28417836 phases=4 Bus1=28369635.0.1.2.3 Bus2=28417836.0.1.2.3 LineCode=336_ACSR_3PH_336_ACSR_N_12KV_4 Length=0.054319 units=km
New Line.4517253E$4495048E phases=2 Bus1=70425629.2.3 Bus2=69655949.2.3 LineCode=4_ACSR_2PH_12KV_2 Length=0.063929 units=km
New Line.PS0992$ND28417836 phases=4 Bus1=28417836.0.1.2.3 Bus2=105504302.0.1.2.3 LineCode=336_ACSR_3PH_336_ACSR_N_12KV_4 Length=0.077652 units=km
New Line.ND16547425$4716432E phases=2 Bus1=16547425.2.3 Bus2=135919413.2.3 LineCode=4_ACSR_2PH_12KV_2 Length=0.082776 units=km
New Line.50681CIT$50682CIT phases=2 Bus1=16365241.1.3 Bus2=16365216.1.3 LineCode=4_ACSR_2PH_12KV_2 Length=0.074958 units=km
New Line.4607153E$PS0172 phases=4 Bus1=40892245.0.1.2.3 Bus2=105550957.0.1.2.3 LineCode=336_ACSR_3PH_336_ACSR_N_12KV_4 Length=0.096513 units=km
New Line.ND16462383$2279428E phases=3 Bus1=16462383.1.2.3 Bus2=16350948.1.2.3 LineCode=336_ACSR_3PH_12KV_3 Length=0.13399 units=km
New Line.1600879E$ND16459496 phases=4 Bus1=16350609.0.1.2.3 Bus2=16459496.0.1.2.3 LineCode=1/0_ACSR_3PH_1/0_ACSR_N_12KV_4 Length=0.054129 units=km
New Line.ND16462383$ND16462384 phases=4 Bus1=16462383.0.1.2.3 Bus2=16462384.0.1.2.3 LineCode=2_ACSR_3PH_2_ACSR_N_12KV_4 Length=0.062533 units=km
New Line.ND16459496$1600881E phases=4 Bus1=16459496.0.1.2.3 Bus2=16350638.0.1.2.3 LineCode=1/0_ACSR_3PH_1/0_ACSR_N_12KV_4 Length=0.056011 units=km
New Line.ND16462384$2279425E phases=4 Bus1=16462384.0.1.2.3 Bus2=16351009.0.1.2.3 LineCode=336_ACSR_3PH_336_ACSR_N_12KV_4 Length=0.079579 units=km
New Line.PS0640$ND16462384 phases=3 Bus1=16462384.1.2.3 Bus2=16459639.1.2.3 LineCode=2_ACSR_3PH_12KV_3 Length=0.119874 units=km
New Line.2279425E$2279424E phases=4 Bus1=16351009.0.1.2.3 Bus2=16351038.0.1.2.3 LineCode=336_ACSR_3PH_336_ACSR_N_12KV_4 Length=0.077738 units=km
New Line.1600881E$ND16462868 phases=4 Bus1=16350638.0.1.2.3 Bus2=16462868.0.1.2.3 LineCode=1/0_ACSR_3PH_1/0_ACSR_N_12KV_4 Length=0.056628 units=km
New Line.PS0172$ND73703049 phases=4 Bus1=105550958.0.1.2.3 Bus2=73703049.0.1.2.3 LineCode=336_ACSR_3PH_336_ACSR_N_12KV_4 Length=0.031259 units=km
New Line.2279424E$2279423E phases=4 Bus1=16351038.0.1.2.3 Bus2=16351067.0.1.2.3 LineCode=336_ACSR_3PH_336_ACSR_N_12KV_4 Length=0.080906 units=km
New Line.PS0640$1785113E phases=3 Bus1=16459640.1.2.3 Bus2=16364882.1.2.3 LineCode=2_ACSR_3PH_12KV_3 Length=0.061245 units=km
New Line.ND16462868$PS0570 phases=4 Bus1=16462868.0.1.2.3 Bus2=16459470.0.1.2.3 LineCode=4_ACSR_3PH_4_ACSR_N_12KV_4 Length=0.076641 units=km
New Line.1544666E$ND16462868 phases=2 Bus1=16462868.2.3 Bus2=16459507.2.3 LineCode=4_ACSR_2PH_12KV_2 Length=0.094152 units=km
New Line.1544666ET1$ND16462868 phases=2 Bus1=16462868.2.3 Bus2=16459521.2.3 LineCode=4_ACSR_2PH_12KV_2 Length=0.093614 units=km
New Line.ND73703049$1785419E phases=4 Bus1=73703049.0.1.2.3 Bus2=40892216.0.1.2.3 LineCode=336_ACSR_3PH_336_ACSR_N_12KV_4 Length=0.056718 units=km
New Line.ND73703049$4265459E phases=2 Bus1=73703049.2.3 Bus2=73703026.2.3 LineCode=4_ACSR_2PH_12KV_2 Length=0.031259 units=km
New Line.1785113E$4511556E phases=3 Bus1=16364882.1.2.3 Bus2=16364911.1.2.3 LineCode=2_ACSR_3PH_12KV_3 Length=0.064431 units=km
New Line.2279423E$2279422E phases=4 Bus1=16351067.0.1.2.3 Bus2=16415785.0.1.2.3 LineCode=336_ACSR_3PH_336_ACSR_N_12KV_4 Length=0.086123 units=km
New Line.1785419E$ND40984977 phases=4 Bus1=40892216.0.1.2.3 Bus2=40984977.0.1.2.3 LineCode=336_ACSR_3PH_336_ACSR_N_12KV_4 Length=0.057226 units=km
New Line.1544666E$1544667E phases=2 Bus1=16459508.2.3 Bus2=16350790.2.3 LineCode=4_ACSR_2PH_12KV_2 Length=0.094152 units=km
New Line.1544666ET1$1544668E phases=2 Bus1=16459520.2.3 Bus2=16350940.2.3 LineCode=4_ACSR_2PH_12KV_2 Length=0.093614 units=km
New Line.2279422E$2279421E phases=4 Bus1=16415785.0.1.2.3 Bus2=16350980.0.1.2.3 LineCode=336_ACSR_3PH_336_ACSR_N_12KV_4 Length=0.072996 units=km
New Line.4511556E$ND16459671 phases=3 Bus1=16364911.1.2.3 Bus2=16459671.1.2.3 LineCode=2_ACSR_3PH_12KV_3 Length=0.058214 units=km
New Line.32118CIT$32117CIT phases=2 Bus1=16435829.1.3 Bus2=16365453.1.3 LineCode=4_ACSR_2PH_12KV_2 Length=0.061368 units=km
New Line.1906715E$4770128E phases=2 Bus1=16366102.2.3 Bus2=16366127.2.3 LineCode=4_ACSR_2PH_12KV_2 Length=0.127865 units=km
New Line.ND16547425$53222CTC phases=2 Bus1=16547425.2.3 Bus2=16366177.2.3 LineCode=4_ACSR_2PH_12KV_2 Length=0.071013 units=km
New Line.563644S$563645S phases=2 Bus1=16391843.1.3 Bus2=16391818.1.3 LineCode=4_ACSR_2PH_12KV_2 Length=0.107754 units=km
New Line.ND16547425$4959973E phases=2 Bus1=16547425.2.3 Bus2=236696344.2.3 LineCode=4_ACSR_2PH_12KV_2 Length=0.065936 units=km
New Line.ND28417836$2377129E phases=2 Bus1=28417836.2.3 Bus2=28366969.2.3 LineCode=4_ACSR_2PH_12KV_2 Length=0.060925 units=km
New Line.527649S$ND28417836 phases=2 Bus1=28417836.1.3 Bus2=28369622.1.3 LineCode=4_ACSR_2PH_12KV_2 Length=0.015052 units=km
New Line.2223827E$ND28420635 phases=2 Bus1=28278074.1.2 Bus2=28420635.1.2 LineCode=4_ACSR_2PH_12KV_2 Length=0.061557 units=km
New Line.4770128E$1906719E phases=2 Bus1=16366127.2.3 Bus2=16366027.2.3 LineCode=4_ACSR_2PH_12KV_2 Length=0.13028 units=km
New Line.ND40984977$1785417E phases=2 Bus1=40984977.2.3 Bus2=170813298.2.3 LineCode=4_ACSR_2PH_12KV_2 Length=0.077156 units=km
New Line.ND40984977$2290964E phases=4 Bus1=40984977.0.1.2.3 Bus2=40892187.0.1.2.3 LineCode=336_ACSR_3PH_336_ACSR_N_12KV_4 Length=0.075565 units=km
New Line.1544667E$1552928E phases=2 Bus1=16350790.2.3 Bus2=16350765.2.3 LineCode=4_ACSR_2PH_12KV_2 Length=0.09409 units=km
New Line.1544668E$4770214E phases=2 Bus1=16350940.2.3 Bus2=16350915.2.3 LineCode=4_ACSR_2PH_12KV_2 Length=0.096786 units=km
New Line.ND16459671$2156074E phases=3 Bus1=16459671.1.2.3 Bus2=16364940.1.2.3 LineCode=2_ACSR_3PH_12KV_3 Length=0.058281 units=km
New Line.2290964E$ND40984088 phases=4 Bus1=40892187.0.1.2.3 Bus2=40984088.0.1.2.3 LineCode=336_ACSR_3PH_336_ACSR_N_12KV_4 Length=0.065266 units=km
New Line.2279421E$2279420E phases=4 Bus1=16350980.0.1.2.3 Bus2=83701758.0.1.2.3 LineCode=336_ACSR_3PH_336_ACSR_N_12KV_4 Length=0.062274 units=km
New Line.4716432E$4939244E phases=2 Bus1=135919413.2.3 Bus2=16391947.2.3 LineCode=4_ACSR_2PH_12KV_2 Length=0.064153 units=km
New Line.32117CIT$2156406E phases=2 Bus1=16365453.1.3 Bus2=16435329.1.3 LineCode=4_ACSR_2PH_12KV_2 Length=0.088764 units=km
New Line.53222CTC$ND16547312 phases=2 Bus1=16366177.2.3 Bus2=16547312.2.3 LineCode=4_ACSR_2PH_12KV_2 Length=0.055137 units=km
New Line.50682CIT$4962876E phases=2 Bus1=16365216.1.3 Bus2=236295750.1.3 LineCode=1/0_ACSR_2PH_12KV_2 Length=0.078017 units=km
New Line.563645S$4866194E phases=2 Bus1=16391818.1.3 Bus2=236580166.1.3 LineCode=4_ACSR_2PH_12KV_2 Length=0.107539 units=km
New Line.4959973E$4950444E phases=2 Bus1=236696344.2.3 Bus2=236812090.2.3 LineCode=4_ACSR_2PH_12KV_2 Length=0.065208 units=km
New Line.ND28420635$4614750E phases=2 Bus1=28420635.1.2 Bus2=28277691.1.2 LineCode=4_ACSR_2PH_12KV_2 Length=0.055675 units=km
New Line.ND28420635$1989847E phases=2 Bus1=28420635.1.2 Bus2=28278099.1.2 LineCode=4_ACSR_2PH_12KV_2 Length=0.054817 units=km
New Line.2377129E$ND28418194 phases=2 Bus1=28366969.2.3 Bus2=28418194.2.3 LineCode=4_ACSR_2PH_12KV_2 Length=0.060853 units=km
New Line.1552928E$1552929E phases=2 Bus1=16350765.2.3 Bus2=16350740.2.3 LineCode=4_ACSR_2PH_12KV_2 Length=0.104455 units=km
New Line.4770214E$2104133E phases=2 Bus1=16350915.2.3 Bus2=16350890.2.3 LineCode=4_ACSR_2PH_12KV_2 Length=0.087281 units=km
New Line.2279420E$2279419E phases=4 Bus1=83701758.0.1.2.3 Bus2=16351096.0.1.2.3 LineCode=336_ACSR_3PH_336_ACSR_N_12KV_4 Length=0.083234 units=km
New Line.2156074E$ND16546972 phases=3 Bus1=16364940.1.2.3 Bus2=16546972.1.2.3 LineCode=2_ACSR_3PH_12KV_3 Length=0.066977 units=km
New Line.ND40984088$2293003E phases=4 Bus1=40984088.0.1.2.3 Bus2=40960349.0.1.2.3 LineCode=336_ACSR_3PH_336_ACSR_N_12KV_4 Length=0.069559 units=km
New Line.ND105646680$PS0992 phases=4 Bus1=105504303.0.1.2.3 Bus2=105646680.0.1.2.3 LineCode=336_ACSR_3PH_336_ACSR_N_12KV_4 Length=0.093682 units=km
New Line.4866194E$2185167E phases=2 Bus1=236580166.1.3 Bus2=16365341.1.3 LineCode=4_ACSR_2PH_12KV_2 Length=0.080103 units=km
New Line.4939244E$4019856E phases=2 Bus1=16391947.2.3 Bus2=16365902.2.3 LineCode=4_ACSR_2PH_12KV_2 Length=0.12104 units=km
New Line.1906719E$2154674E phases=2 Bus1=16366027.2.3 Bus2=16366002.2.3 LineCode=4_ACSR_2PH_12KV_2 Length=0.176403 units=km
New Line.4950444E$2252981E phases=2 Bus1=236812090.2.3 Bus2=16366077.2.3 LineCode=4_ACSR_2PH_12KV_2 Length=0.045672 units=km
New Line.ND16547312$2300527E phases=2 Bus1=16547312.2.3 Bus2=16366152.2.3 LineCode=4_ACSR_2PH_12KV_2 Length=0.074087 units=km
New Line.ND16547312$367125S phases=2 Bus1=16547312.2.3 Bus2=16433482.2.3 LineCode=2_ACSR_2PH_12KV_2 Length=0.063588 units=km
New Line.ND28418194$4912926E phases=2 Bus1=28418194.2.3 Bus2=204742244.2.3 LineCode=4_ACSR_2PH_12KV_2 Length=0.121752 units=km
New Line.279495380$P5000494-B phases=2 Bus1=279495383.1.2 Bus2=40959434.1.2 LineCode=2_AL_2PH_12KV_2 Length=0.001863 units=km
New Line.238189690$238189680 phases=2 Bus1=238189682.1.3 Bus2=238189692.1.3 LineCode=1/0_JCN_2PH_12KV_2 Length=0.026981 units=km
New Line.175222925$P5533375-1 phases=1 Bus1=175222928.2 Bus2=87181088.2 LineCode=2_CLP_1PH_12KV_1 Length=0.001367 units=km
New Line.197332290$P5332114-1 phases=2 Bus1=40892466.1.2 Bus2=197332293.1.2 LineCode=350_AL_2PH_12KV_2 Length=0.000752 units=km
New Line.B5325529-2$ND40985848 phases=2 Bus1=40985848.1.2 Bus2=40892719.1.2 LineCode=350_AL_2PH_12KV_2 Length=0.060445 units=km
New Line.P5344590-1$B5325539-1 phases=2 Bus1=40892998.1.3 Bus2=40893718.1.3 LineCode=350_AL_2PH_12KV_2 Length=0.081491 units=km
New Line.B5332120-2$ND40985848 phases=2 Bus1=40985848.1.2 Bus2=40960199.1.2 LineCode=350_AL_2PH_12KV_2 Length=0.069447 units=km
New Line.238189690$ND238190169 phases=2 Bus1=238189693.1.3 Bus2=238190169.1.3 LineCode=1/0_JCN_2PH_12KV_2 Length=0.008261 units=km
New Line.279495390$P5000494-A phases=2 Bus1=40959425.1.2 Bus2=279495393.1.2 LineCode=2_AL_2PH_12KV_2 Length=0.002044 units=km
New Line.P5325532-2$P5344599-2 phases=2 Bus1=40893511.1.3 Bus2=40957515.1.3 LineCode=350_AL_2PH_12KV_2 Length=0.119454 units=km
New Line.183399167$P5466213-1 phases=1 Bus1=183399170.2 Bus2=40957733.2 LineCode=2_CLP_1PH_12KV_1 Length=0.0009 units=km
New Line.B5332115-2$197332290 phases=2 Bus1=197332292.1.2 Bus2=40892403.1.2 LineCode=350_AL_2PH_12KV_2 Length=0.100943 units=km
New Line.B5332120-1$B5325530-2 phases=2 Bus1=40960190.1.2 Bus2=40892647.1.2 LineCode=350_AL_2PH_12KV_2 Length=0.036978 units=km
New Line.P5344590-2$P5344591-2 phases=2 Bus1=40893727.1.3 Bus2=40893655.1.3 LineCode=350_AL_2PH_12KV_2 Length=0.115896 units=km
New Line.238189700$ND238190169 phases=2 Bus1=238190169.1.3 Bus2=238189703.1.3 LineCode=1/0_JCN_2PH_12KV_2 Length=0.01019 units=km
New Line.ND238190169$238189710 phases=2 Bus1=238190169.1.3 Bus2=238189713.1.3 LineCode=1/0_JCN_2PH_12KV_2 Length=0.006064 units=km
New Line.183399155$P5466213-2 phases=1 Bus1=40957742.2 Bus2=183399158.2 LineCode=2_CLP_1PH_12KV_1 Length=0.000936 units=km
New Line.P5344598-2$P5344599-1 phases=2 Bus1=40957506.1.3 Bus2=40958603.1.3 LineCode=350_AL_2PH_12KV_2 Length=0.106755 units=km
New Line.4694217E$4694219E phases=4 Bus1=28278969.0.1.2.3 Bus2=18884444.0.1.2.3 LineCode=336_ACSR_3PH_336_ACSR_N_12KV_4 Length=0.183844 units=km
New Line.279495400$279495390 phases=2 Bus1=279495392.1.2 Bus2=279495402.1.2 LineCode=2_AL_2PH_12KV_2 Length=0.105694 units=km
New Line.B5332115-1$B5332116-2 phases=2 Bus1=40892394.1.2 Bus2=40892331.1.2 LineCode=350_AL_2PH_12KV_2 Length=0.111384 units=km
New Line.238189710$238189720 phases=2 Bus1=238189712.1.3 Bus2=238189722.1.3 LineCode=1/0_JCN_2PH_12KV_2 Length=0.02296 units=km
New Line.238189730$238189700 phases=2 Bus1=238189702.1.3 Bus2=238189732.1.3 LineCode=1/0_JCN_2PH_12KV_2 Length=0.079582 units=km
New Line.175222964$183399155 phases=1 Bus1=183399157.2 Bus2=175222966.2 LineCode=2_CLP_1PH_12KV_1 Length=0.151991 units=km
New Line.4218450EP1$207838401 phases=3 Bus1=16365030.1.2.3 Bus2=207838403.1.2.3 LineCode=2_AL_3PH_12KV_3 Length=0.011016 units=km
New Line.P5344591-1$P5344592-2 phases=2 Bus1=40893646.1.3 Bus2=40893079.1.3 LineCode=350_AL_2PH_12KV_2 Length=0.093136 units=km
New Line.4338059E$ND106414277 phases=3 Bus1=40958981.1.2.3 Bus2=106414277.1.2.3 LineCode=1000_CLP_3PH_12KV_3 Length=0.122051 units=km
New Line.279495400$P5001750-1 phases=2 Bus1=279495403.1.2 Bus2=40960118.1.2 LineCode=2_AL_2PH_12KV_2 Length=0.001937 units=km
New Line.4006123E$174312254 phases=3 Bus1=40892079.1.2.3 Bus2=174312256.1.2.3 LineCode=350_AL_3PH_12KV_3 Length=0.016022 units=km
New Line.P5344598-1$P5344597-2 phases=2 Bus1=40958594.1.3 Bus2=40893439.1.3 LineCode=350_AL_2PH_12KV_2 Length=0.106078 units=km
New Line.P5753007-2$238189730 phases=2 Bus1=238189733.1.3 Bus2=238189775.1.3 LineCode=1/0_JCN_2PH_12KV_2 Length=0.000838 units=km
New Line.238189720$ND238190252 phases=2 Bus1=238189723.1.3 Bus2=238190234.1.3 LineCode=1/0_JCN_2PH_12KV_2 Length=0.007333 units=km
New Line.FD78205$ND40985329 phases=3 Bus1=40985329.1.2.3 Bus2=105231665.1.2.3 LineCode=4_ACSR_3PH_12KV_3 Length=0.004317 units=km
New Line.207838401$P5430029-1 phases=3 Bus1=207838404.1.2.3 Bus2=16365043.1.2.3 LineCode=2_AL_3PH_12KV_3 Length=0.002241 units=km
New Line.ND106414277$4280395E phases=3 Bus1=106414277.1.2.3 Bus2=28366616.1.2.3 LineCode=1000_CLP_3PH_12KV_3 Length=0.036673 units=km