! OpenDSS script generated from multiconductor network
Clear

New Circuit.mc_network basekv=12.0 pu=1.000000 angle=0.00 frequency=60.0 phases=3 Mvasc3=143993 Mvasc1=47997.6
~ bus1=-88888830418646.1.2.3

! Line codes
New LineCode.1/0_CLP_1PH_12KV_1 nphases=1 units=km Rmatrix=[ 0.066542 ] Xmatrix=[ 0.020338 ] Cmatrix=[ 0 ]
New LineCode.1/0_CLP_3PH_12KV_3 nphases=3 units=km Rmatrix=[ 0.103209 | 0 0.103209 | 0 0 0.103209 ] Xmatrix=[ 0.031545 | 0 0.031545 | 0 0 0.031545 ] Cmatrix=[ 0 | 0 0 | 0 0 0 ]
New LineCode.2_CLP_3PH_12KV_3 nphases=3 units=km Rmatrix=[ 0.027886 | 0 0.027886 | 0 0 0.027886 ] Xmatrix=[ 0.005878 | 0 0.005878 | 0 0 0.005878 ] Cmatrix=[ 0 | 0 0 | 0 0 0 ]
New LineCode.750_CLP_3PH_12KV_3 nphases=3 units=km Rmatrix=[ 0.080246 | 0 0.080246 | 0 0 0.080246 ] Xmatrix=[ 0.098552 | 0 0.098552 | 0 0 0.098552 ] Cmatrix=[ 0 | 0 0 | 0 0 0 ]
New LineCode.1/0_JCN_3PH_12KV_3 nphases=3 units=km Rmatrix=[ 0.245212 | 0 0.245212 | 0 0 0.245212 ] Xmatrix=[ 0.074948 | 0 0.074948 | 0 0 0.074948 ] Cmatrix=[ 0 | 0 0 | 0 0 0 ]
New LineCode.350_CLP_3PH_12KV_3 nphases=3 units=km Rmatrix=[ 0.116136 | 0 0.116136 | 0 0 0.116136 ] Xmatrix=[ 0.088239 | 0 0.088239 | 0 0 0.088239 ] Cmatrix=[ 0 | 0 0 | 0 0 0 ]
New LineCode.1/0_JCN_1PH_12KV_1 nphases=1 units=km Rmatrix=[ 0.002811 ] Xmatrix=[ 0.000859 ] Cmatrix=[ 0 ]
New LineCode.2_CLP_1PH_12KV_1 nphases=1 units=km Rmatrix=[ 0.004947 ] Xmatrix=[ 0.001043 ] Cmatrix=[ 0 ]
New LineCode.2_JCN_3PH_12KV_3 nphases=3 units=km Rmatrix=[ 0.011586 | 0 0.011586 | 0 0 0.011586 ] Xmatrix=[ 0.002442 | 0 0.002442 | 0 0 0.002442 ] Cmatrix=[ 0 | 0 0 | 0 0 0 ]
New LineCode.2_JCN_2PH_12KV_2 nphases=2 units=km Rmatrix=[ 0.143372 | 0 0.143372 ] Xmatrix=[ 0.03022 | 0 0.03022 ] Cmatrix=[ 0 | 0 0 ]
New LineCode.1/0_JCN_2PH_12KV_2 nphases=2 units=km Rmatrix=[ 0.002129 | 0 0.002129 ] Xmatrix=[ 0.000651 | 0 0.000651 ] Cmatrix=[ 0 | 0 0 ]
New LineCode.336_ACSR_3PH_336_ACSR_N_12KV_4 nphases=4 units=km Rmatrix=[ 0.014913 | 0 0.014913 | 0 0 0.014913 | 0 0 0 0.014913 ] Xmatrix=[ 0.02974 | 0 0.02974 | 0 0 0.02974 | 0 0 0 0.02974 ] Cmatrix=[ 0 | 0 0 | 0 0 0 | 0 0 0 0 ]
New LineCode.1000_JCN_3PH_12KV_3 nphases=3 units=km Rmatrix=[ 0.076981 | 0 0.076981 | 0 0 0.076981 ] Xmatrix=[ 0.116525 | 0 0.116525 | 0 0 0.116525 ] Cmatrix=[ 0 | 0 0 | 0 0 0 ]
New LineCode.336_ACSR_3PH_12KV_3 nphases=3 units=km Rmatrix=[ 0.006434 | 0 0.006434 | 0 0 0.006434 ] Xmatrix=[ 0.014409 | 0 0.014409 | 0 0 0.014409 ] Cmatrix=[ 0 | 0 0 | 0 0 0 ]
New LineCode.1000_CLP_3PH_12KV_3 nphases=3 units=km Rmatrix=[ 0.028546 | 0 0.028546 | 0 0 0.028546 ] Xmatrix=[ 0.04321 | 0 0.04321 | 0 0 0.04321 ] Cmatrix=[ 0 | 0 0 | 0 0 0 ]
New LineCode.350_JCN_3PH_12KV_3 nphases=3 units=km Rmatrix=[ 0.050206 | 0 0.050206 | 0 0 0.050206 ] Xmatrix=[ 0.038146 | 0 0.038146 | 0 0 0.038146 ] Cmatrix=[ 0 | 0 0 | 0 0 0 ]
New LineCode.2_CLP_2PH_12KV_2 nphases=2 units=km Rmatrix=[ 0.21384 | 0 0.21384 ] Xmatrix=[ 0.045073 | 0 0.045073 ] Cmatrix=[ 0 | 0 0 ]
New LineCode.__1PH_12KV_1 nphases=1 units=km Rmatrix=[ 1e-05 ] Xmatrix=[ 1e-05 ] Cmatrix=[ 0 ]
New LineCode.2_AL_1PH_12KV_1 nphases=1 units=km Rmatrix=[ 0.153628 ] Xmatrix=[ 0.032382 ] Cmatrix=[ 0 ]
New LineCode.1/0_CLP_2PH_12KV_2 nphases=2 units=km Rmatrix=[ 0.008958 | 0 0.008958 ] Xmatrix=[ 0.002738 | 0 0.002738 ] Cmatrix=[ 0 | 0 0 ]
New LineCode.1/0_ACSR_3PH_12KV_3 nphases=3 units=km Rmatrix=[ 0.003285 | 0 0.003285 | 0 0 0.003285 ] Xmatrix=[ 0.002616 | 0 0.002616 | 0 0 0.002616 ] Cmatrix=[ 0 | 0 0 | 0 0 0 ]
New LineCode.1/0_ACSR_3PH_1/0_ACSR_N_12KV_4 nphases=4 units=km Rmatrix=[ 0.0559 | 0 0.0559 | 0 0 0.0559 | 0 0 0 0.0559 ] Xmatrix=[ 0.040398 | 0 0.040398 | 0 0 0.040398 | 0 0 0 0.040398 ] Cmatrix=[ 0 | 0 0 | 0 0 0 | 0 0 0 0 ]
New LineCode.6_CU_2PH_12KV_2 nphases=2 units=km Rmatrix=[ 0.168616 | 0 0.168616 ] Xmatrix=[ 0.059767 | 0 0.059767 ] Cmatrix=[ 0 | 0 0 ]
New LineCode.4_ACSR_2PH_12KV_2 nphases=2 units=km Rmatrix=[ 0.110545 | 0 0.110545 ] Xmatrix=[ 0.040564 | 0 0.040564 ] Cmatrix=[ 0 | 0 0 ]
New LineCode.8_ACSR_2PH_12KV_2 nphases=2 units=km Rmatrix=[ 0.087663 | 0 0.087663 ] Xmatrix=[ 0.032167 | 0 0.032167 ] Cmatrix=[ 0 | 0 0 ]
New LineCode.1/0_ACSR_2PH_12KV_2 nphases=2 units=km Rmatrix=[ 0.231173 | 0 0.231173 ] Xmatrix=[ 0.184059 | 0 0.184059 ] Cmatrix=[ 0 | 0 0 ]
New LineCode.4/0_ACSR_3PH_4/0_ACSR_N_12KV_4 nphases=4 units=km Rmatrix=[ 0.002949 | 0 0.002949 | 0 0 0.002949 | 0 0 0 0.002949 ] Xmatrix=[ 0.003754 | 0 0.003754 | 0 0 0.003754 | 0 0 0 0.003754 ] Cmatrix=[ 0 | 0 0 | 0 0 0 | 0 0 0 0 ]
New LineCode.2_ACSR_2PH_12KV_2 nphases=2 units=km Rmatrix=[ 0.097885 | 0 0.097885 ] Xmatrix=[ 0.052624 | 0 0.052624 ] Cmatrix=[ 0 | 0 0 ]
New LineCode.4_ACSR_3PH_12KV_3 nphases=3 units=km Rmatrix=[ 0.030203 | 0 0.030203 | 0 0 0.030203 ] Xmatrix=[ 0.011083 | 0 0.011083 | 0 0 0.011083 ] Cmatrix=[ 0 | 0 0 | 0 0 0 ]
New LineCode.336_ATW_3PH_12KV_3 nphases=3 units=km Rmatrix=[ 1e-05 | 0 1e-05 | 0 0 1e-05 ] Xmatrix=[ 1e-05 | 0 1e-05 | 0 0 1e-05 ] Cmatrix=[ 0 | 0 0 | 0 0 0 ]

! Lines
New Line.P5309756-2$P5348022-1 phases=1 Bus1=26851324.2 Bus2=26851243.2 LineCode=1/0_CLP_1PH_12KV_1 Length=0.24697 units=km
New Line.P5309753-1$ND26912072 phases=1 Bus1=26912072.3 Bus2=26851869.3 LineCode=1/0_CLP_1PH_12KV_1 Length=0.103013 units=km
New Line.ND26912072$P5208522-2 phases=3 Bus1=26912072.1.2.3 Bus2=26851950.1.2.3 LineCode=1/0_CLP_3PH_12KV_3 Length=0.223498 units=km
New Line.GS1066-4$PME2947-1 phases=1 Bus1=71336396.3 Bus2=26853219.3 LineCode=1/0_CLP_1PH_12KV_1 Length=0.06158 units=km
New Line.183193576$P5519736-1 phases=3 Bus1=183193579.1.2.3 Bus2=72732450.1.2.3 LineCode=2_CLP_3PH_12KV_3 Length=0.010665 units=km
New Line.ND98486911$GS2225-4 phases=3 Bus1=98486911.1.2.3 Bus2=87838178.1.2.3 LineCode=750_CLP_3PH_12KV_3 Length=0.072084 units=km
New Line.ND98486911$99122924 phases=1 Bus1=98486911.1 Bus2=99122926.1 LineCode=1/0_CLP_1PH_12KV_1 Length=0.062246 units=km
New Line.84233429$ND18971448 phases=3 Bus1=84233431.1.2.3 Bus2=18971448.1.2.3 LineCode=1/0_JCN_3PH_12KV_3 Length=0.173508 units=km
New Line.P5348020-2$P5309757-2 phases=3 Bus1=26852480.1.2.3 Bus2=26852408.1.2.3 LineCode=1/0_CLP_3PH_12KV_3 Length=0.183423 units=km
New Line.208435234$P5424520-1 phases=3 Bus1=208435237.1.2.3 Bus2=68964760.1.2.3 LineCode=2_CLP_3PH_12KV_3 Length=0.00299 units=km
New Line.84233522$84233479 phases=3 Bus1=84233481.1.2.3 Bus2=84233524.1.2.3 LineCode=2_CLP_3PH_12KV_3 Length=0.032187 units=km
New Line.GS2472-1$GS1067-3 phases=3 Bus1=158143811.1.2.3 Bus2=102058629.1.2.3 LineCode=750_CLP_3PH_12KV_3 Length=0.403655 units=km
New Line.ND18971448$PME1023-1 phases=3 Bus1=18971448.1.2.3 Bus2=164443065.1.2.3 LineCode=1/0_JCN_3PH_12KV_3 Length=0.00769 units=km
New Line.ND18971448$207511844 phases=3 Bus1=18971448.1.2.3 Bus2=207511846.1.2.3 LineCode=1/0_CLP_3PH_12KV_3 Length=0.138971 units=km
New Line.ND237982886$GS1067-1 phases=3 Bus1=158143793.1.2.3 Bus2=237982886.1.2.3 LineCode=350_CLP_3PH_12KV_3 Length=0.187082 units=km
New Line.P5385449-2$PME2947-1 phases=1 Bus1=26853220.3 Bus2=26853278.3 LineCode=1/0_CLP_1PH_12KV_1 Length=0.047952 units=km
New Line.99122924$PFC2386-1 phases=1 Bus1=99122927.1 Bus2=98486863.1 LineCode=1/0_CLP_1PH_12KV_1 Length=0.005609 units=km
New Line.ND102175948$ND237982886 phases=3 Bus1=237982886.1.2.3 Bus2=102175948.1.2.3 LineCode=350_CLP_3PH_12KV_3 Length=0.078664 units=km
New Line.237982839$ND237982886 phases=1 Bus1=237982886.2 Bus2=237982841.2 LineCode=1/0_JCN_1PH_12KV_1 Length=0.047698 units=km
New Line.P5348023-1$P5348022-2 phases=1 Bus1=26851252.2 Bus2=26851459.2 LineCode=1/0_CLP_1PH_12KV_1 Length=0.170311 units=km
New Line.GS1067-4$BS1086-1 phases=3 Bus1=158143820.1.2.3 Bus2=26853097.1.2.3 LineCode=1/0_CLP_3PH_12KV_3 Length=0.026209 units=km
New Line.84233522$P5515733-1 phases=3 Bus1=84233525.1.2.3 Bus2=84233256.1.2.3 LineCode=2_CLP_3PH_12KV_3 Length=0.003054 units=km
New Line.ND102175948$102176325 phases=1 Bus1=102175948.1 Bus2=102176327.1 LineCode=2_CLP_1PH_12KV_1 Length=0.011206 units=km
New Line.ND102175948$ND103800446 phases=3 Bus1=102175948.1.2.3 Bus2=103800446.1.2.3 LineCode=350_CLP_3PH_12KV_3 Length=0.329012 units=km
New Line.207511844$P5424801-1 phases=3 Bus1=207511847.1.2.3 Bus2=18929135.1.2.3 LineCode=1/0_CLP_3PH_12KV_3 Length=0.004312 units=km
New Line.P5348020-1$P5348038-1 phases=3 Bus1=26852399.1.2.3 Bus2=26852327.1.2.3 LineCode=1/0_CLP_3PH_12KV_3 Length=0.210867 units=km
New Line.PFC2386-1$ND98487018 phases=1 Bus1=98486864.1 Bus2=98487018.1 LineCode=2_CLP_1PH_12KV_1 Length=0.013158 units=km
New Line.ND103800446$103800669 phases=1 Bus1=103800446.3 Bus2=103800671.3 LineCode=2_CLP_1PH_12KV_1 Length=0.009779 units=km
New Line.237982839$FC1368-1 phases=1 Bus1=237982842.2 Bus2=237982800.2 LineCode=1/0_JCN_1PH_12KV_1 Length=0.002538 units=km
New Line.239447896$ND103800446 phases=1 Bus1=103800446.3 Bus2=239447898.3 LineCode=1/0_JCN_1PH_12KV_1 Length=0.175802 units=km
New Line.BS1086-1$P5348037-2 phases=3 Bus1=26853098.1.2.3 Bus2=26852746.1.2.3 LineCode=1/0_CLP_3PH_12KV_3 Length=0.016912 units=km
New Line.ND87838520$GS2225-2 phases=3 Bus1=87838154.1.2.3 Bus2=87838520.1.2.3 LineCode=1/0_CLP_3PH_12KV_3 Length=0.019015 units=km
New Line.ND98487018$99122899 phases=1 Bus1=98487018.1 Bus2=99122902.1 LineCode=2_CLP_1PH_12KV_1 Length=0.002968 units=km
New Line.ND98487018$99122949 phases=1 Bus1=98487018.1 Bus2=99122952.1 LineCode=2_CLP_1PH_12KV_1 Length=0.00341 units=km
New Line.102176325$PFC7231-1 phases=1 Bus1=102176328.1 Bus2=102175818.1 LineCode=2_CLP_1PH_12KV_1 Length=0.005428 units=km
New Line.PME1023-2$206720764 phases=3 Bus1=164443056.1.2.3 Bus2=206720766.1.2.3 LineCode=1/0_JCN_3PH_12KV_3 Length=0.429228 units=km
New Line.GS2472-2$229815735 phases=3 Bus1=102058621.1.2.3 Bus2=229815737.1.2.3 LineCode=750_CLP_3PH_12KV_3 Length=0.166915 units=km
New Line.ND87838520$240929913 phases=3 Bus1=87838520.1.2.3 Bus2=240929915.1.2.3 LineCode=1/0_CLP_3PH_12KV_3 Length=0.216004 units=km
New Line.4185467E$GS2225-1 phases=3 Bus1=87838162.1.2.3 Bus2=87838102.1.2.3 LineCode=750_CLP_3PH_12KV_3 Length=0.28032 units=km
New Line.PME2179-4$ND87838520 phases=3 Bus1=87838520.1.2.3 Bus2=87838387.1.2.3 LineCode=1/0_CLP_3PH_12KV_3 Length=0.120036 units=km
New Line.ND87838520$94307342 phases=1 Bus1=87838520.3 Bus2=94307344.3 LineCode=2_CLP_1PH_12KV_1 Length=0.103972 units=km
New Line.103800669$FC2527-1 phases=1 Bus1=103800672.3 Bus2=103800533.3 LineCode=2_CLP_1PH_12KV_1 Length=0.00268 units=km
New Line.FC1368-1$237982851 phases=1 Bus1=237982801.2 Bus2=237982854.2 LineCode=1/0_JCN_1PH_12KV_1 Length=0.003763 units=km
New Line.239447896$PME1369-1 phases=1 Bus1=239447899.3 Bus2=239448377.3 LineCode=1/0_JCN_1PH_12KV_1 Length=0.00265 units=km
New Line.P5348038-2$P5348039-2 phases=1 Bus1=26852336.1 Bus2=26852192.1 LineCode=1/0_CLP_1PH_12KV_1 Length=0.283336 units=km
New Line.99122949$99122849 phases=1 Bus1=99122951.1 Bus2=99122851.1 LineCode=2_CLP_1PH_12KV_1 Length=0.091123 units=km
New Line.99122899$99122874 phases=1 Bus1=99122901.1 Bus2=99122876.1 LineCode=2_CLP_1PH_12KV_1 Length=0.104935 units=km
New Line.GS2472-4$GS2473-1 phases=3 Bus1=102058645.1.2.3 Bus2=102058779.1.2.3 LineCode=750_CLP_3PH_12KV_3 Length=0.351561 units=km
New Line.PFC7231-1$102176352 phases=1 Bus1=102175819.1 Bus2=102176355.1 LineCode=2_CLP_1PH_12KV_1 Length=0.003729 units=km
New Line.229815735$ND108889439 phases=3 Bus1=229815738.1.2.3 Bus2=108889439.1.2.3 LineCode=750_CLP_3PH_12KV_3 Length=0.007077 units=km
New Line.206720764$PMH1024-1 phases=3 Bus1=206720767.1.2.3 Bus2=164443290.1.2.3 LineCode=1/0_JCN_3PH_12KV_3 Length=0.00373 units=km
New Line.P5348037-1$185617120 phases=3 Bus1=26852737.1.2.3 Bus2=185617122.1.2.3 LineCode=1/0_CLP_3PH_12KV_3 Length=0.111632 units=km
New Line.240929913$ND240930014 phases=3 Bus1=240929916.1.2.3 Bus2=240930014.1.2.3 LineCode=1/0_CLP_3PH_12KV_3 Length=0.016857 units=km
New Line.94307342$PFC2285-1 phases=1 Bus1=94307345.3 Bus2=94306663.3 LineCode=2_CLP_1PH_12KV_1 Length=0.005746 units=km
New Line.FC2527-1$103800696 phases=1 Bus1=103800534.3 Bus2=103800699.3 LineCode=2_CLP_1PH_12KV_1 Length=0.004519 units=km
New Line.ND108889439$175102332 phases=1 Bus1=108889439.1 Bus2=175102334.1 LineCode=2_CLP_1PH_12KV_1 Length=0.041422 units=km
New Line.229815562$ND108889439 phases=3 Bus1=108889439.1.2.3 Bus2=229815565.1.2.3 LineCode=1/0_JCN_3PH_12KV_3 Length=0.017269 units=km
New Line.ND237775521$ND108889439 phases=3 Bus1=108889439.1.2.3 Bus2=237775521.1.2.3 LineCode=750_CLP_3PH_12KV_3 Length=0.008394 units=km
New Line.237982851$237982908 phases=1 Bus1=237982853.2 Bus2=237982910.2 LineCode=1/0_JCN_1PH_12KV_1 Length=0.029694 units=km
New Line.239447908$PME1369-1 phases=1 Bus1=239448376.3 Bus2=239447911.3 LineCode=1/0_JCN_1PH_12KV_1 Length=0.001961 units=km
New Line.240929925$ND240930014 phases=3 Bus1=240930014.1.2.3 Bus2=240929928.1.2.3 LineCode=1/0_JCN_3PH_12KV_3 Length=0.013087 units=km
New Line.ND240930014$240929935 phases=3 Bus1=240930014.1.2.3 Bus2=240929938.1.2.3 LineCode=1/0_CLP_3PH_12KV_3 Length=0.011869 units=km
New Line.PME2179-2$87839575 phases=1 Bus1=87838397.2 Bus2=87839577.2 LineCode=2_CLP_1PH_12KV_1 Length=0.256055 units=km
New Line.99122874$P5578546-2 phases=1 Bus1=99122877.1 Bus2=98486798.1 LineCode=2_CLP_1PH_12KV_1 Length=0.003685 units=km
New Line.99122849$ND99122709 phases=1 Bus1=99122852.1 Bus2=99122709.1 LineCode=2_CLP_1PH_12KV_1 Length=0.006641 units=km
New Line.102176352$P5587232-2 phases=1 Bus1=102176354.1 Bus2=102176077.1 LineCode=2_CLP_1PH_12KV_1 Length=0.041621 units=km
New Line.206720776$PMH1024-1 phases=3 Bus1=164443291.1.2.3 Bus2=206720779.1.2.3 LineCode=1/0_JCN_3PH_12KV_3 Length=0.004243 units=km
New Line.229815747$ND237775521 phases=3 Bus1=237775521.1.2.3 Bus2=229815750.1.2.3 LineCode=750_CLP_3PH_12KV_3 Length=0.007562 units=km
New Line.237775307$ND237775521 phases=3 Bus1=237775521.1.2.3 Bus2=237775310.1.2.3 LineCode=1/0_JCN_3PH_12KV_3 Length=0.012121 units=km
New Line.P5348039-1$P5348040-2 phases=1 Bus1=26852183.1 Bus2=26852264.1 LineCode=1/0_CLP_1PH_12KV_1 Length=0.153015 units=km
New Line.185617120$P5348021-1 phases=3 Bus1=185617123.1.2.3 Bus2=26852809.1.2.3 LineCode=1/0_CLP_3PH_12KV_3 Length=0.001495 units=km
New Line.PME2179-3$ND87839636 phases=1 Bus1=87838406.1 Bus2=87839636.1 LineCode=2_CLP_1PH_12KV_1 Length=0.005261 units=km
New Line.PME2179-1$87840234 phases=1 Bus1=87838415.3 Bus2=87840236.3 LineCode=2_CLP_1PH_12KV_1 Length=0.492489 units=km
New Line.PFC2285-1$94307369 phases=1 Bus1=94306664.3 Bus2=94307372.3 LineCode=2_CLP_1PH_12KV_1 Length=0.003701 units=km
New Line.ND99122709$P5578547-2 phases=1 Bus1=99122709.1 Bus2=98487042.1 LineCode=2_CLP_1PH_12KV_1 Length=0.006533 units=km
New Line.ND99122709$99122824 phases=1 Bus1=99122709.1 Bus2=99122827.1 LineCode=2_CLP_1PH_12KV_1 Length=0.003785 units=km
New Line.103800696$103800746 phases=1 Bus1=103800698.3 Bus2=103800748.3 LineCode=2_CLP_1PH_12KV_1 Length=0.112428 units=km
New Line.175102332$FC2603-1 phases=1 Bus1=175102335.1 Bus2=108889478.1 LineCode=2_CLP_1PH_12KV_1 Length=0.001638 units=km
New Line.229815306$229815562 phases=3 Bus1=229815564.1.2.3 Bus2=229815308.1.2.3 LineCode=1/0_JCN_3PH_12KV_3 Length=0.014128 units=km
New Line.237982908$ND237982964 phases=1 Bus1=237982911.2 Bus2=237982964.2 LineCode=1/0_JCN_1PH_12KV_1 Length=0.010335 units=km
New Line.239447908$239448008 phases=1 Bus1=239447910.3 Bus2=239448010.3 LineCode=1/0_JCN_1PH_12KV_1 Length=0.015838 units=km
New Line.240929925$240929945 phases=3 Bus1=240929927.1.2.3 Bus2=240929947.1.2.3 LineCode=1/0_JCN_3PH_12KV_3 Length=0.040403 units=km
New Line.S5050210-2$240929935 phases=3 Bus1=240929937.1.2.3 Bus2=26853572.1.2.3 LineCode=1/0_CLP_3PH_12KV_3 Length=0.082891 units=km
New Line.ND87838988$ND87839636 phases=1 Bus1=87839636.1 Bus2=87838988.1 LineCode=2_CLP_1PH_12KV_1 Length=0.076201 units=km
New Line.ND87839636$87839096 phases=1 Bus1=87839636.1 Bus2=87839098.1 LineCode=2_CLP_1PH_12KV_1 Length=0.129772 units=km
New Line.87839575$P5539148-1 phases=1 Bus1=87839578.2 Bus2=87839451.2 LineCode=2_CLP_1PH_12KV_1 Length=0.010213 units=km
New Line.GS2474-3$229815747 phases=3 Bus1=229815749.1.2.3 Bus2=102059102.1.2.3 LineCode=750_CLP_3PH_12KV_3 Length=0.237708 units=km
New Line.GS2473-2$V5583663 phases=1 Bus1=102058771.1 Bus2=104716149.1 LineCode=2_CLP_1PH_12KV_1 Length=0.006181 units=km
New Line.182212304$206720776 phases=3 Bus1=206720778.1.2.3 Bus2=182212306.1.2.3 LineCode=1/0_JCN_3PH_12KV_3 Length=0.005324 units=km
New Line.237775307$237775319 phases=3 Bus1=237775309.1.2.3 Bus2=237775321.1.2.3 LineCode=1/0_JCN_3PH_12KV_3 Length=0.037129 units=km
New Line.ND237982964$237982920 phases=1 Bus1=237982964.2 Bus2=237982923.2 LineCode=1/0_JCN_1PH_12KV_1 Length=0.01539 units=km
New Line.ND237982964$237982930 phases=1 Bus1=237982964.2 Bus2=237982933.2 LineCode=1/0_JCN_1PH_12KV_1 Length=0.010638 units=km
New Line.ND87838817$ND87838988 phases=1 Bus1=87838988.1 Bus2=87838817.1 LineCode=2_CLP_1PH_12KV_1 Length=0.005845 units=km
New Line.87839270$ND87838988 phases=1 Bus1=87838988.1 Bus2=87839273.1 LineCode=2_CLP_1PH_12KV_1 Length=0.009623 units=km
New Line.87840234$P5539152-2 phases=1 Bus1=87840237.3 Bus2=87839903.3 LineCode=2_CLP_1PH_12KV_1 Length=0.008982 units=km
New Line.94307369$ND94307327 phases=1 Bus1=94307371.3 Bus2=94307327.3 LineCode=2_CLP_1PH_12KV_1 Length=0.00938 units=km
New Line.99122824$99122747 phases=1 Bus1=99122826.1 Bus2=99122749.1 LineCode=2_CLP_1PH_12KV_1 Length=0.110388 units=km
New Line.P5587232-1$102176382 phases=1 Bus1=102176068.1 Bus2=102176385.1 LineCode=2_CLP_1PH_12KV_1 Length=0.002853 units=km
New Line.103800746$P5587229-2 phases=1 Bus1=103800749.3 Bus2=103800604.3 LineCode=2_CLP_1PH_12KV_1 Length=0.005475 units=km
New Line.GS2473-3$ND139664058 phases=3 Bus1=102058787.1.2.3 Bus2=139664058.1.2.3 LineCode=2_JCN_3PH_12KV_3 Length=0.092493 units=km
New Line.FC2603-1$175102320 phases=1 Bus1=108889479.1 Bus2=175102323.1 LineCode=2_CLP_1PH_12KV_1 Length=0.0016 units=km
New Line.185617108$P5348021-2 phases=3 Bus1=26852818.1.2.3 Bus2=185617111.1.2.3 LineCode=1/0_CLP_3PH_12KV_3 Length=0.000695 units=km
New Line.229815306$PME4034-4 phases=3 Bus1=229815309.1.2.3 Bus2=229815192.1.2.3 LineCode=1/0_JCN_3PH_12KV_3 Length=0.002317 units=km
New Line.ND239448475$239448008 phases=1 Bus1=239448011.3 Bus2=239448475.3 LineCode=1/0_JCN_1PH_12KV_1 Length=0.011123 units=km
New Line.240929945$P5573036-1 phases=3 Bus1=240929948.1.2.3 Bus2=240930027.1.2.3 LineCode=1/0_CLP_3PH_12KV_3 Length=0.003637 units=km
New Line.P5348041-2$P5348040-1 phases=1 Bus1=26852255.1 Bus2=26852674.1 LineCode=1/0_CLP_1PH_12KV_1 Length=0.129861 units=km
New Line.87839096$P5539142-1 phases=1 Bus1=87839099.1 Bus2=87838652.1 LineCode=2_CLP_1PH_12KV_1 Length=0.00565 units=km
New Line.ND87838817$P5539143-1 phases=1 Bus1=87838817.1 Bus2=87838905.1 LineCode=2_CLP_1PH_12KV_1 Length=0.005136 units=km
New Line.ND94307327$ND94307031 phases=1 Bus1=94307327.3 Bus2=94307031.3 LineCode=2_CLP_1PH_12KV_1 Length=0.130343 units=km
New Line.ND94307327$94307394 phases=1 Bus1=94307327.3 Bus2=94307396.3 LineCode=2_CLP_1PH_12KV_1 Length=0.07287 units=km
New Line.P5578547-1$99122799 phases=1 Bus1=98487033.1 Bus2=99122802.1 LineCode=2_CLP_1PH_12KV_1 Length=0.0062 units=km
New Line.P5620389-2$ND139664058 phases=2 Bus1=139664058.1.3 Bus2=139663996.1.3 LineCode=2_JCN_2PH_12KV_2 Length=0.055596 units=km
New Line.182212304$P5552186-1 phases=3 Bus1=182212307.1.2.3 Bus2=164443340.1.2.3 LineCode=1/0_JCN_3PH_12KV_3 Length=0.004407 units=km
New Line.175102392$ND139664058 phases=3 Bus1=139664058.1.2.3 Bus2=175102394.1.2.3 LineCode=2_JCN_3PH_12KV_3 Length=0.010401 units=km
New Line.237775319$PME1426-4 phases=3 Bus1=237775322.1.2.3 Bus2=237775376.1.2.3 LineCode=1/0_JCN_3PH_12KV_3 Length=0.002448 units=km
New Line.237982920$P5766112-2 phases=1 Bus1=237982922.2 Bus2=237982994.2 LineCode=1/0_JCN_1PH_12KV_1 Length=0.217553 units=km
New Line.237982930$P5766118-1 phases=1 Bus1=237982932.2 Bus2=237983515.2 LineCode=1/0_JCN_1PH_12KV_1 Length=0.490342 units=km
New Line.239448020$ND239448475 phases=1 Bus1=239448475.3 Bus2=239448023.3 LineCode=1/0_JCN_1PH_12KV_1 Length=0.018816 units=km
New Line.239448030$ND239448475 phases=1 Bus1=239448475.3 Bus2=239448033.3 LineCode=1/0_JCN_1PH_12KV_1 Length=0.011242 units=km
New Line.GS2473-4$243358241 phases=3 Bus1=102058795.1.2.3 Bus2=243358243.1.2.3 LineCode=350_CLP_3PH_12KV_3 Length=0.188321 units=km
New Line.87839270$ND87839082 phases=1 Bus1=87839272.1 Bus2=87839082.1 LineCode=2_CLP_1PH_12KV_1 Length=0.044515 units=km
New Line.P5539148-2$87839550 phases=1 Bus1=87839460.2 Bus2=87839553.2 LineCode=2_CLP_1PH_12KV_1 Length=0.003503 units=km
New Line.ND94307031$94307469 phases=1 Bus1=94307031.3 Bus2=94307471.3 LineCode=2_CLP_1PH_12KV_1 Length=0.012576 units=km
New Line.99122747$P5578548-2 phases=1 Bus1=99122750.1 Bus2=98487128.1 LineCode=2_CLP_1PH_12KV_1 Length=0.003606 units=km
New Line.102176409$102176382 phases=1 Bus1=102176384.1 Bus2=102176411.1 LineCode=2_CLP_1PH_12KV_1 Length=0.103736 units=km
New Line.175102320$ND108889702 phases=1 Bus1=175102322.1 Bus2=108889702.1 LineCode=2_CLP_1PH_12KV_1 Length=0.013238 units=km
New Line.185617108$P5348025-2 phases=3 Bus1=185617110.1.2.3 Bus2=26852890.1.2.3 LineCode=1/0_CLP_3PH_12KV_3 Length=0.180305 units=km
New Line.ND87839082$P5539146-2 phases=1 Bus1=87839082.1 Bus2=87839020.1 LineCode=2_CLP_1PH_12KV_1 Length=0.108958 units=km
New Line.87839340$ND87839082 phases=1 Bus1=87839082.1 Bus2=87839342.1 LineCode=2_CLP_1PH_12KV_1 Length=0.195852 units=km
New Line.P5539152-1$87840200 phases=1 Bus1=87839894.3 Bus2=87840203.3 LineCode=2_CLP_1PH_12KV_1 Length=0.00586 units=km
New Line.94307394$P5548863-1 phases=1 Bus1=94307397.3 Bus2=94307229.3 LineCode=2_CLP_1PH_12KV_1 Length=0.003953 units=km
New Line.99122799$99122774 phases=1 Bus1=99122801.1 Bus2=99122776.1 LineCode=2_CLP_1PH_12KV_1 Length=0.133527 units=km
New Line.ND102424376$GS2474-2 phases=3 Bus1=102059094.1.2.3 Bus2=102424376.1.2.3 LineCode=750_CLP_3PH_12KV_3 Length=0.382566 units=km
New Line.P5587229-1$103800771 phases=1 Bus1=103800595.3 Bus2=103800774.3 LineCode=2_CLP_1PH_12KV_1 Length=0.003487 units=km
New Line.P5620388-1$175102392 phases=3 Bus1=175102395.1.2.3 Bus2=139663932.1.2.3 LineCode=2_JCN_3PH_12KV_3 Length=0.002665 units=km
New Line.ND108889702$203660557 phases=1 Bus1=108889702.1 Bus2=203660559.1 LineCode=2_CLP_1PH_12KV_1 Length=0.076423 units=km
New Line.ND108889702$203660630 phases=1 Bus1=108889702.1 Bus2=203660632.1 LineCode=2_CLP_1PH_12KV_1 Length=0.17424 units=km
New Line.229815328$PME4034-2 phases=1 Bus1=229815202.2 Bus2=229815331.2 LineCode=1/0_JCN_1PH_12KV_1 Length=0.002564 units=km
New Line.239447930$239448020 phases=1 Bus1=239448022.3 Bus2=239447932.3 LineCode=1/0_JCN_1PH_12KV_1 Length=0.132959 units=km
New Line.239448030$239448190 phases=1 Bus1=239448032.3 Bus2=239448192.3 LineCode=1/0_JCN_1PH_12KV_1 Length=0.163001 units=km
New Line.243358241$FC1484-1 phases=3 Bus1=243358244.1.2.3 Bus2=243358203.1.2.3 LineCode=350_CLP_3PH_12KV_3 Length=0.005082 units=km
New Line.P5539143-2$87839148 phases=1 Bus1=87838914.1 Bus2=87839151.1 LineCode=2_CLP_1PH_12KV_1 Length=0.006108 units=km
New Line.87839550$87839525 phases=1 Bus1=87839552.2 Bus2=87839527.2 LineCode=2_CLP_1PH_12KV_1 Length=0.142779 units=km
New Line.94307469$ND94307216 phases=1 Bus1=94307472.3 Bus2=94307216.3 LineCode=2_CLP_1PH_12KV_1 Length=0.00258 units=km
New Line.ND102424376$PME2433-2 phases=3 Bus1=102424376.1.2.3 Bus2=102059289.1.2.3 LineCode=750_CLP_3PH_12KV_3 Length=0.027579 units=km
New Line.P5587233-2$102176409 phases=1 Bus1=102176412.1 Bus2=102176242.1 LineCode=2_CLP_1PH_12KV_1 Length=0.003033 units=km
New Line.ND102424376$103799873 phases=1 Bus1=102424376.3 Bus2=103799875.3 LineCode=2_CLP_1PH_12KV_1 Length=0.074575 units=km
New Line.GS2474-1$ND108443804 phases=3 Bus1=102059086.1.2.3 Bus2=108443804.1.2.3 LineCode=750_CLP_3PH_12KV_3 Length=0.073666 units=km
New Line.229815318$PME4034-3 phases=1 Bus1=229815211.2 Bus2=229815321.2 LineCode=1/0_JCN_1PH_12KV_1 Length=0.002193 units=km
New Line.229815338$PME4034-1 phases=1 Bus1=229815220.2 Bus2=229815341.2 LineCode=1/0_JCN_1PH_12KV_1 Length=0.002556 units=km
New Line.237775329$PME1426-2 phases=3 Bus1=237775386.1.2.3 Bus2=237775332.1.2.3 LineCode=1/0_JCN_3PH_12KV_3 Length=0.002271 units=km
New Line.P5766112-1$P5766113-1 phases=1 Bus1=237982985.2 Bus2=237983065.2 LineCode=1/0_JCN_1PH_12KV_1 Length=0.358738 units=km
New Line.P5766117-1$P5766118-2 phases=1 Bus1=237983524.2 Bus2=237983440.2 LineCode=1/0_JCN_1PH_12KV_1 Length=0.183446 units=km
New Line.P5539147-2$87839340 phases=1 Bus1=87839343.1 Bus2=87838559.1 LineCode=2_CLP_1PH_12KV_1 Length=0.00414 units=km
New Line.87840200$87840150 phases=1 Bus1=87840202.3 Bus2=87840152.3 LineCode=2_CLP_1PH_12KV_1 Length=0.152298 units=km
New Line.ND94307216$P5548864-1 phases=1 Bus1=94307216.3 Bus2=94307133.3 LineCode=2_CLP_1PH_12KV_1 Length=0.00815 units=km
New Line.94307494$ND94307216 phases=1 Bus1=94307216.3 Bus2=94307497.3 LineCode=2_CLP_1PH_12KV_1 Length=0.006802 units=km
New Line.99122774$P5578550-2 phases=1 Bus1=99122777.1 Bus2=98486944.1 LineCode=2_CLP_1PH_12KV_1 Length=0.00458 units=km
New Line.103800721$103800771 phases=1 Bus1=103800773.3 Bus2=103800723.3 LineCode=2_CLP_1PH_12KV_1 Length=0.077711 units=km
New Line.ND108443804$PME2671-1 phases=3 Bus1=108443804.1.2.3 Bus2=108443599.1.2.3 LineCode=750_CLP_3PH_12KV_3 Length=0.665239 units=km
New Line.203660630$P5600304-2 phases=1 Bus1=203660633.1 Bus2=108889377.1 LineCode=2_CLP_1PH_12KV_1 Length=0.002106 units=km
New Line.203660557$P5600306-2 phases=1 Bus1=203660560.1 Bus2=108889568.1 LineCode=2_CLP_1PH_12KV_1 Length=0.001492 units=km
New Line.P5348025-1$185617159 phases=3 Bus1=26852881.1.2.3 Bus2=185617161.1.2.3 LineCode=1/0_CLP_3PH_12KV_3 Length=0.096667 units=km
New Line.229815328$ND229815624 phases=1 Bus1=229815330.2 Bus2=229815624.2 LineCode=1/0_JCN_1PH_12KV_1 Length=0.013714 units=km
New Line.237775339$PME1426-3 phases=1 Bus1=237775395.1 Bus2=237775342.1 LineCode=1/0_JCN_1PH_12KV_1 Length=0.001442 units=km
New Line.237775349$PME1426-1 phases=1 Bus1=237775404.1 Bus2=237775352.1 LineCode=1/0_JCN_1PH_12KV_1 Length=0.002098 units=km
New Line.239447930$P5766121-2 phases=1 Bus1=239447933.3 Bus2=239447955.3 LineCode=1/0_JCN_1PH_12KV_1 Length=0.002942 units=km
New Line.239448190$P5766124-1 phases=1 Bus1=239448193.3 Bus2=239448218.3 LineCode=1/0_JCN_1PH_12KV_1 Length=0.001677 units=km
New Line.243358253$FC1484-1 phases=1 Bus1=243358202.2 Bus2=243358256.2 LineCode=1/0_JCN_1PH_12KV_1 Length=0.006071 units=km
New Line.87839525$P5539150-1 phases=1 Bus1=87839528.2 Bus2=87839376.2 LineCode=2_CLP_1PH_12KV_1 Length=0.004152 units=km
New Line.87839148$87839658 phases=1 Bus1=87839150.1 Bus2=87839660.1 LineCode=2_CLP_1PH_12KV_1 Length=0.088345 units=km
New Line.103799873$FC2475-1 phases=1 Bus1=103799876.3 Bus2=102424328.3 LineCode=2_CLP_1PH_12KV_1 Length=0.004067 units=km
New Line.229815318$ND229815624 phases=1 Bus1=229815624.2 Bus2=229815320.2 LineCode=1/0_JCN_1PH_12KV_1 Length=0.018537 units=km
New Line.229815338$ND229815624 phases=1 Bus1=229815624.2 Bus2=229815340.2 LineCode=1/0_JCN_1PH_12KV_1 Length=0.019294 units=km
New Line.ND229815624$229815513 phases=1 Bus1=229815624.2 Bus2=229815515.2 LineCode=1/0_JCN_1PH_12KV_1 Length=0.047162 units=km
New Line.237775329$ND237775552 phases=3 Bus1=237775331.1.2.3 Bus2=237775552.1.2.3 LineCode=1/0_JCN_3PH_12KV_3 Length=0.022764 units=km
New Line.87840150$P5539153-2 phases=1 Bus1=87840153.3 Bus2=87839823.3 LineCode=2_CLP_1PH_12KV_1 Length=0.001751 units=km
New Line.94307574$94307494 phases=1 Bus1=94307496.3 Bus2=94307576.3 LineCode=2_CLP_1PH_12KV_1 Length=0.160765 units=km
New Line.P5587233-1$102176438 phases=1 Bus1=102176233.1 Bus2=102176441.1 LineCode=2_CLP_1PH_12KV_1 Length=0.005776 units=km
New Line.ND102423168$PME2433-3 phases=1 Bus1=102059271.2 Bus2=102423168.2 LineCode=2_CLP_1PH_12KV_1 Length=0.030855 units=km
New Line.103800721$P5587230-1 phases=1 Bus1=103800724.3 Bus2=103800465.3 LineCode=2_CLP_1PH_12KV_1 Length=0.00331 units=km
New Line.237775339$ND237775552 phases=1 Bus1=237775552.1 Bus2=237775341.1 LineCode=1/0_JCN_1PH_12KV_1 Length=0.027078 units=km
New Line.237775349$ND237775552 phases=1 Bus1=237775552.1 Bus2=237775351.1 LineCode=1/0_JCN_1PH_12KV_1 Length=0.026435 units=km
New Line.ND237775552$237775600 phases=3 Bus1=237775552.1.2.3 Bus2=237775602.1.2.3 LineCode=1/0_JCN_3PH_12KV_3 Length=0.139288 units=km
New Line.P5766113-2$P5766114-1 phases=1 Bus1=237983074.2 Bus2=237983138.2 LineCode=1/0_JCN_1PH_12KV_1 Length=0.097868 units=km
New Line.237983397$P5766117-2 phases=1 Bus1=237983449.2 Bus2=237983399.2 LineCode=1/0_JCN_1PH_12KV_1 Length=0.324907 units=km
New Line.243358253$243358364 phases=1 Bus1=243358255.2 Bus2=243358366.2 LineCode=1/0_JCN_1PH_12KV_1 Length=0.038279 units=km
New Line.185617159$P5348026-1 phases=3 Bus1=185617162.1.2.3 Bus2=26852953.1.2.3 LineCode=1/0_CLP_3PH_12KV_3 Length=0.001768 units=km
New Line.87839658$P5539144-2 phases=1 Bus1=87839661.1 Bus2=87838753.1 LineCode=2_CLP_1PH_12KV_1 Length=0.005776 units=km
New Line.P5548864-2$94307444 phases=1 Bus1=94307142.3 Bus2=94307447.3 LineCode=2_CLP_1PH_12KV_1 Length=0.014159 units=km
New Line.ND102423168$ND103417865 phases=1 Bus1=102423168.2 Bus2=103417865.2 LineCode=2_CLP_1PH_12KV_1 Length=0.235401 units=km
New Line.ND102423168$103799647 phases=1 Bus1=102423168.2 Bus2=103799649.2 LineCode=2_CLP_1PH_12KV_1 Length=0.067189 units=km
New Line.FC2475-1$103799898 phases=1 Bus1=102424329.3 Bus2=103799901.3 LineCode=2_CLP_1PH_12KV_1 Length=0.005913 units=km
New Line.ND102423168$ND103800338 phases=1 Bus1=102423168.2 Bus2=103800338.2 LineCode=2_CLP_1PH_12KV_1 Length=0.196124 units=km
New Line.203660545$P5600306-1 phases=1 Bus1=108889559.1 Bus2=203660548.1 LineCode=2_CLP_1PH_12KV_1 Length=0.001226 units=km
New Line.216142997$PME2671-4 phases=1 Bus1=108443581.1 Bus2=216142999.1 LineCode=1/0_JCN_1PH_12KV_1 Length=0.054497 units=km
New Line.ND229815668$229815513 phases=1 Bus1=229815516.2 Bus2=229815668.2 LineCode=1/0_JCN_1PH_12KV_1 Length=0.017521 units=km
New Line.239447918$P5766121-1 phases=1 Bus1=239447946.3 Bus2=239447921.3 LineCode=1/0_JCN_1PH_12KV_1 Length=0.002048 units=km