! OpenDSS script generated from multiconductor network
Clear

New Circuit.mc_network basekv=16.0 pu=1.000000 angle=0.00 frequency=60.0 phases=3 Mvasc3=255987 Mvasc1=85329.1
~ bus1=-8888882161683.1.2.3

! Line codes
New LineCode.1000_JCN_3PH_16KV_3 nphases=3 units=km Rmatrix=[ 0.140058 | 0 0.140058 | 0 0 0.140058 ] Xmatrix=[ 0.212006 | 0 0.212006 | 0 0 0.212006 ] Cmatrix=[ 0 | 0 0 | 0 0 0 ]
New LineCode.336_ACSR_3PH_16KV_3 nphases=3 units=km Rmatrix=[ 0.020727 | 0 0.020727 | 0 0 0.020727 ] Xmatrix=[ 0.046416 | 0 0.046416 | 0 0 0.046416 ] Cmatrix=[ 0 | 0 0 | 0 0 0 ]
New LineCode.1/0_ACSR_3PH_16KV_3 nphases=3 units=km Rmatrix=[ 0.005272 | 0 0.005272 | 0 0 0.005272 ] Xmatrix=[ 0.004197 | 0 0.004197 | 0 0 0.004197 ] Cmatrix=[ 0 | 0 0 | 0 0 0 ]
New LineCode.2/0_CU_3PH_16KV_3 nphases=3 units=km Rmatrix=[ 0.009661 | 0 0.009661 | 0 0 0.009661 ] Xmatrix=[ 0.0149 | 0 0.0149 | 0 0 0.0149 ] Cmatrix=[ 0 | 0 0 | 0 0 0 ]
New LineCode.1/0_ACSR_2PH_16KV_2 nphases=2 units=km Rmatrix=[ 0.057363 | 0 0.057363 ] Xmatrix=[ 0.045672 | 0 0.045672 ] Cmatrix=[ 0 | 0 0 ]
New LineCode.6_CU_3PH_16KV_3 nphases=3 units=km Rmatrix=[ 0.120153 | 0 0.120153 | 0 0 0.120153 ] Xmatrix=[ 0.042589 | 0 0.042589 | 0 0 0.042589 ] Cmatrix=[ 0 | 0 0 | 0 0 0 ]
New LineCode.6_CU_2PH_16KV_2 nphases=2 units=km Rmatrix=[ 0.150092 | 0 0.150092 ] Xmatrix=[ 0.053201 | 0 0.053201 ] Cmatrix=[ 0 | 0 0 ]
New LineCode.2_CLP_3PH_16KV_3 nphases=3 units=km Rmatrix=[ 0.077718 | 0 0.077718 | 0 0 0.077718 ] Xmatrix=[ 0.016381 | 0 0.016381 | 0 0 0.016381 ] Cmatrix=[ 0 | 0 0 | 0 0 0 ]
New LineCode.1/0_JCN_3PH_16KV_3 nphases=3 units=km Rmatrix=[ 0.02871 | 0 0.02871 | 0 0 0.02871 ] Xmatrix=[ 0.008775 | 0 0.008775 | 0 0 0.008775 ] Cmatrix=[ 0 | 0 0 | 0 0 0 ]
New LineCode.2_CLP_2PH_16KV_2 nphases=2 units=km Rmatrix=[ 0.01291 | 0 0.01291 ] Xmatrix=[ 0.002721 | 0 0.002721 ] Cmatrix=[ 0 | 0 0 ]
New LineCode.4_CU_3PH_16KV_3 nphases=3 units=km Rmatrix=[ 0.002387 | 0 0.002387 | 0 0 0.002387 ] Xmatrix=[ 0.001301 | 0 0.001301 | 0 0 0.001301 ] Cmatrix=[ 0 | 0 0 | 0 0 0 ]
New LineCode.1/0_CLP_2PH_16KV_2 nphases=2 units=km Rmatrix=[ 0.063296 | 0 0.063296 ] Xmatrix=[ 0.019346 | 0 0.019346 ] Cmatrix=[ 0 | 0 0 ]
New LineCode.2_JCN_3PH_16KV_3 nphases=3 units=km Rmatrix=[ 0.064645 | 0 0.064645 | 0 0 0.064645 ] Xmatrix=[ 0.013626 | 0 0.013626 | 0 0 0.013626 ] Cmatrix=[ 0 | 0 0 | 0 0 0 ]
New LineCode.1/0_CLP_3PH_16KV_3 nphases=3 units=km Rmatrix=[ 0.04687 | 0 0.04687 | 0 0 0.04687 ] Xmatrix=[ 0.014326 | 0 0.014326 | 0 0 0.014326 ] Cmatrix=[ 0 | 0 0 | 0 0 0 ]
New LineCode.2_CIC_2PH_16KV_2 nphases=2 units=km Rmatrix=[ 0.116579 | 0 0.116579 ] Xmatrix=[ 0.024573 | 0 0.024573 ] Cmatrix=[ 0 | 0 0 ]
New LineCode.350_CLP_3PH_16KV_3 nphases=3 units=km Rmatrix=[ 0.044318 | 0 0.044318 | 0 0 0.044318 ] Xmatrix=[ 0.033673 | 0 0.033673 | 0 0 0.033673 ] Cmatrix=[ 0 | 0 0 | 0 0 0 ]
New LineCode.1/0_JCN_2PH_16KV_2 nphases=2 units=km Rmatrix=[ 0.037925 | 0 0.037925 ] Xmatrix=[ 0.011592 | 0 0.011592 ] Cmatrix=[ 0 | 0 0 ]
New LineCode.4_ACSR_3PH_16KV_3 nphases=3 units=km Rmatrix=[ 0.036575 | 0 0.036575 | 0 0 0.036575 ] Xmatrix=[ 0.013421 | 0 0.013421 | 0 0 0.013421 ] Cmatrix=[ 0 | 0 0 | 0 0 0 ]
New LineCode.750_CLP_3PH_16KV_3 nphases=3 units=km Rmatrix=[ 0.02097 | 0 0.02097 | 0 0 0.02097 ] Xmatrix=[ 0.025754 | 0 0.025754 | 0 0 0.025754 ] Cmatrix=[ 0 | 0 0 | 0 0 0 ]
New LineCode.750_JCN_3PH_16KV_3 nphases=3 units=km Rmatrix=[ 0.022162 | 0 0.022162 | 0 0 0.022162 ] Xmatrix=[ 0.027218 | 0 0.027218 | 0 0 0.027218 ] Cmatrix=[ 0 | 0 0 | 0 0 0 ]
New LineCode.2/0_CU_2PH_16KV_2 nphases=2 units=km Rmatrix=[ 0.001495 | 0 0.001495 ] Xmatrix=[ 0.002305 | 0 0.002305 ] Cmatrix=[ 0 | 0 0 ]
New LineCode.2_ACSR_3PH_16KV_3 nphases=3 units=km Rmatrix=[ 0.003209 | 0 0.003209 | 0 0 0.003209 ] Xmatrix=[ 0.001725 | 0 0.001725 | 0 0 0.001725 ] Cmatrix=[ 0 | 0 0 | 0 0 0 ]
New LineCode.2_JCN_C_2PH_16KV_2 nphases=2 units=km Rmatrix=[ 1e-05 | 0 1e-05 ] Xmatrix=[ 1e-05 | 0 1e-05 ] Cmatrix=[ 0 | 0 0 ]

! Lines
New Line.08785$1657570EPH phases=3 Bus1=-8888882161683.1.2.3 Bus2=152295577.1.2.3 LineCode=1000_JCN_3PH_16KV_3 Length=1.51337 units=km
New Line.PS1018$1657570EPH phases=3 Bus1=152295576.1.2.3 Bus2=152295602.1.2.3 LineCode=336_ACSR_3PH_16KV_3 Length=0.005462 units=km
New Line.ND215702190$1813245E phases=3 Bus1=62905033.1.2.3 Bus2=215702190.1.2.3 LineCode=1/0_ACSR_3PH_16KV_3 Length=0.095039 units=km
New Line.ND215702190$ND62926284 phases=3 Bus1=215702190.1.2.3 Bus2=62926284.1.2.3 LineCode=1/0_ACSR_3PH_16KV_3 Length=0.16063 units=km
New Line.FD00146$ND288206733 phases=3 Bus1=288206733.1.2.3 Bus2=288206710.1.2.3 LineCode=1/0_ACSR_3PH_16KV_3 Length=0.001895 units=km
New Line.ND152253217$PS1018 phases=3 Bus1=152295601.1.2.3 Bus2=152253217.1.2.3 LineCode=2/0_CU_3PH_16KV_3 Length=0.031606 units=km
New Line.ND152253217$ND152796173 phases=3 Bus1=152253217.1.2.3 Bus2=152796173.1.2.3 LineCode=2/0_CU_3PH_16KV_3 Length=0.128165 units=km
New Line.ND62926252$ND152253217 phases=3 Bus1=152253217.1.2.3 Bus2=62926252.1.2.3 LineCode=2/0_CU_3PH_16KV_3 Length=0.054348 units=km
New Line.ND62926252$BF11429 phases=3 Bus1=62926252.1.2.3 Bus2=215949825.1.2.3 LineCode=1/0_ACSR_3PH_16KV_3 Length=0.11089 units=km
New Line.1657567E$ND62926252 phases=3 Bus1=62926252.1.2.3 Bus2=62904856.1.2.3 LineCode=2/0_CU_3PH_16KV_3 Length=0.100207 units=km
New Line.ND152796173$ND62925984 phases=3 Bus1=152796173.1.2.3 Bus2=62925984.1.2.3 LineCode=2/0_CU_3PH_16KV_3 Length=0.04073 units=km
New Line.ND62926976$ND62926252 phases=3 Bus1=62926252.1.2.3 Bus2=62926976.1.2.3 LineCode=1/0_ACSR_3PH_16KV_3 Length=0.042073 units=km
New Line.BF11424$ND62925984 phases=3 Bus1=62925984.1.2.3 Bus2=222914732.1.2.3 LineCode=1/0_ACSR_3PH_16KV_3 Length=0.005513 units=km
New Line.BF11425$ND62926976 phases=3 Bus1=62926976.1.2.3 Bus2=242024479.1.2.3 LineCode=1/0_ACSR_3PH_16KV_3 Length=0.006103 units=km
New Line.RCS0008$1657567E phases=3 Bus1=62904856.1.2.3 Bus2=62925520.1.2.3 LineCode=2/0_CU_3PH_16KV_3 Length=0.045602 units=km
New Line.ND62926976$ND62926534 phases=3 Bus1=62926976.1.2.3 Bus2=62926534.1.2.3 LineCode=336_ACSR_3PH_16KV_3 Length=0.080785 units=km
New Line.ND62925984$1765100E phases=3 Bus1=62925984.1.2.3 Bus2=84624938.1.2.3 LineCode=2/0_CU_3PH_16KV_3 Length=0.068155 units=km
New Line.BF11426$ND62926534 phases=2 Bus1=62926534.2.3 Bus2=222914922.2.3 LineCode=1/0_ACSR_2PH_16KV_2 Length=0.002479 units=km
New Line.BF11429$4444101E phases=3 Bus1=215949826.1.2.3 Bus2=62904883.1.2.3 LineCode=1/0_ACSR_3PH_16KV_3 Length=0.07547 units=km
New Line.1765100E$ND62925985 phases=3 Bus1=84624938.1.2.3 Bus2=62925985.1.2.3 LineCode=2/0_CU_3PH_16KV_3 Length=0.133934 units=km
New Line.ND62926534$ND62926511 phases=3 Bus1=62926534.1.2.3 Bus2=62926511.1.2.3 LineCode=336_ACSR_3PH_16KV_3 Length=0.07959 units=km
New Line.ND62926511$BF11427 phases=3 Bus1=62926511.1.2.3 Bus2=215126311.1.2.3 LineCode=1/0_ACSR_3PH_16KV_3 Length=0.001296 units=km
New Line.BF11430$ND62925985 phases=3 Bus1=62925985.1.2.3 Bus2=222914687.1.2.3 LineCode=1/0_ACSR_3PH_16KV_3 Length=0.00781 units=km
New Line.ND242024529$BF11425 phases=3 Bus1=242024478.1.2.3 Bus2=242024529.1.2.3 LineCode=1/0_ACSR_3PH_16KV_3 Length=0.002975 units=km
New Line.ND62925985$1657578E phases=3 Bus1=62925985.1.2.3 Bus2=62905556.1.2.3 LineCode=2/0_CU_3PH_16KV_3 Length=0.072841 units=km
New Line.ND62926511$ND62925967 phases=3 Bus1=62926511.1.2.3 Bus2=62925967.1.2.3 LineCode=336_ACSR_3PH_16KV_3 Length=0.080849 units=km
New Line.ND62926159$BF11424 phases=3 Bus1=222914733.1.2.3 Bus2=62926159.1.2.3 LineCode=1/0_ACSR_3PH_16KV_3 Length=0.009321 units=km
New Line.ND242024529$4858190E phases=3 Bus1=242024529.1.2.3 Bus2=185570089.1.2.3 LineCode=1/0_ACSR_3PH_16KV_3 Length=0.088465 units=km
New Line.ND62925967$BF11418 phases=3 Bus1=62925967.1.2.3 Bus2=222914838.1.2.3 LineCode=1/0_ACSR_3PH_16KV_3 Length=0.002532 units=km
New Line.ND226461465$BF11426 phases=2 Bus1=222914923.2.3 Bus2=226461465.2.3 LineCode=1/0_ACSR_2PH_16KV_2 Length=0.002534 units=km
New Line.ND62926159$4853611E phases=3 Bus1=62926159.1.2.3 Bus2=242024564.1.2.3 LineCode=1/0_ACSR_3PH_16KV_3 Length=0.007805 units=km
New Line.ND62926159$1813245E phases=3 Bus1=62926159.1.2.3 Bus2=62905033.1.2.3 LineCode=1/0_ACSR_3PH_16KV_3 Length=0.0809 units=km
New Line.1657578E$1657579E phases=3 Bus1=62905556.1.2.3 Bus2=62905585.1.2.3 LineCode=2/0_CU_3PH_16KV_3 Length=0.059921 units=km
New Line.4860159E$ND242024529 phases=3 Bus1=242024529.1.2.3 Bus2=62924285.1.2.3 LineCode=1/0_ACSR_3PH_16KV_3 Length=0.037776 units=km
New Line.ND62925967$ND62925943 phases=3 Bus1=62925967.1.2.3 Bus2=62925943.1.2.3 LineCode=336_ACSR_3PH_16KV_3 Length=0.079347 units=km
New Line.ND215126368$BF11427 phases=3 Bus1=215126310.1.2.3 Bus2=215126368.1.2.3 LineCode=6_CU_3PH_16KV_3 Length=0.001351 units=km
New Line.BF11422$ND62925943 phases=2 Bus1=62925943.1.2 Bus2=215126530.1.2 LineCode=1/0_ACSR_2PH_16KV_2 Length=0.000636 units=km
New Line.BF11423$ND62925943 phases=3 Bus1=62925943.1.2.3 Bus2=215126669.1.2.3 LineCode=1/0_ACSR_3PH_16KV_3 Length=0.048218 units=km
New Line.ND226461465$4865695E phases=2 Bus1=226461465.2.3 Bus2=62905008.2.3 LineCode=1/0_ACSR_2PH_16KV_2 Length=0.106933 units=km
New Line.1657579E$1657580E phases=3 Bus1=62905585.1.2.3 Bus2=62905614.1.2.3 LineCode=2/0_CU_3PH_16KV_3 Length=0.052704 units=km
New Line.640198H$640199H phases=3 Bus1=185570089.1.2.3 Bus2=62907021.1.2.3 LineCode=1/0_ACSR_3PH_16KV_3 Length=0.03358 units=km
New Line.4752770E$ND226461465 phases=2 Bus1=226461465.2.3 Bus2=62907046.2.3 LineCode=1/0_ACSR_2PH_16KV_2 Length=0.093813 units=km
New Line.578259E$4860159E phases=3 Bus1=62924285.1.2.3 Bus2=62924910.1.2.3 LineCode=1/0_ACSR_3PH_16KV_3 Length=0.139143 units=km
New Line.BF11430$ND62926415 phases=3 Bus1=222914688.1.2.3 Bus2=62926415.1.2.3 LineCode=1/0_ACSR_3PH_16KV_3 Length=0.006028 units=km
New Line.785226E$4865695E phases=2 Bus1=62905008.2.3 Bus2=185102696.2.3 LineCode=1/0_ACSR_2PH_16KV_2 Length=0.26995 units=km
New Line.BF11418$ND222914893 phases=3 Bus1=222914839.1.2.3 Bus2=222914893.1.2.3 LineCode=1/0_ACSR_3PH_16KV_3 Length=0.002349 units=km
New Line.4853611E$578259E phases=3 Bus1=62924910.1.2.3 Bus2=242024565.1.2.3 LineCode=1/0_ACSR_3PH_16KV_3 Length=0.075026 units=km
New Line.1657580E$ND288206733 phases=3 Bus1=62905614.1.2.3 Bus2=288206733.1.2.3 LineCode=2/0_CU_3PH_16KV_3 Length=0.05188 units=km
New Line.640199H$695902E phases=3 Bus1=62907021.1.2.3 Bus2=62904983.1.2.3 LineCode=1/0_ACSR_3PH_16KV_3 Length=0.071461 units=km
New Line.4886041E$ND215126368 phases=2 Bus1=215126368.1.3 Bus2=62905083.1.3 LineCode=1/0_ACSR_2PH_16KV_2 Length=0.035706 units=km
New Line.ND62926415$616822H phases=3 Bus1=62926415.1.2.3 Bus2=62905454.1.2.3 LineCode=1/0_ACSR_3PH_16KV_3 Length=0.047968 units=km
New Line.ND62926415$640194H phases=3 Bus1=62926415.1.2.3 Bus2=62905479.1.2.3 LineCode=1/0_ACSR_3PH_16KV_3 Length=0.043934 units=km
New Line.4911778E$ND215126368 phases=3 Bus1=215126368.1.2.3 Bus2=62924471.1.2.3 LineCode=1/0_ACSR_3PH_16KV_3 Length=0.149441 units=km
New Line.4752770E$4865698E phases=2 Bus1=62907046.2.3 Bus2=62924985.2.3 LineCode=1/0_ACSR_2PH_16KV_2 Length=0.066646 units=km
New Line.4911778E$4911776E phases=2 Bus1=62924471.2.3 Bus2=215126266.2.3 LineCode=1/0_ACSR_2PH_16KV_2 Length=0.068285 units=km
New Line.4886041E$4911781E phases=2 Bus1=62905083.1.3 Bus2=215126402.1.3 LineCode=1/0_ACSR_2PH_16KV_2 Length=0.062996 units=km
New Line.768155E$ND222914893 phases=2 Bus1=222914893.1.3 Bus2=215126759.1.3 LineCode=1/0_ACSR_2PH_16KV_2 Length=0.150467 units=km
New Line.ND215126792$BF11422 phases=2 Bus1=215126529.1.2 Bus2=215126792.1.2 LineCode=1/0_ACSR_2PH_16KV_2 Length=0.000558 units=km
New Line.ND62926284$1813247E phases=3 Bus1=62926284.1.2.3 Bus2=222914774.1.2.3 LineCode=1/0_ACSR_3PH_16KV_3 Length=0.019423 units=km
New Line.ND222914893$4853647E phases=3 Bus1=222914893.1.2.3 Bus2=62904933.1.2.3 LineCode=1/0_ACSR_3PH_16KV_3 Length=0.042583 units=km
New Line.785226E$857774E phases=2 Bus1=185102696.2.3 Bus2=62905058.2.3 LineCode=1/0_ACSR_2PH_16KV_2 Length=0.099739 units=km
New Line.640194H$1306779E phases=3 Bus1=62905479.1.2.3 Bus2=62905504.1.2.3 LineCode=1/0_ACSR_3PH_16KV_3 Length=0.058962 units=km
New Line.616822H$616823H phases=3 Bus1=62905454.1.2.3 Bus2=62924496.1.2.3 LineCode=1/0_ACSR_3PH_16KV_3 Length=0.034014 units=km
New Line.ND62926284$1167538ESMD phases=3 Bus1=62926284.1.2.3 Bus2=62924880.1.2.3 LineCode=1/0_ACSR_3PH_16KV_3 Length=0.01572 units=km
New Line.ND288206733$PS0115 phases=3 Bus1=288206733.1.2.3 Bus2=62925640.1.2.3 LineCode=2/0_CU_3PH_16KV_3 Length=0.132066 units=km
New Line.ND62926204$BF11423 phases=3 Bus1=215126668.1.2.3 Bus2=62926204.1.2.3 LineCode=1/0_ACSR_3PH_16KV_3 Length=0.002912 units=km
New Line.4911781E$1813246E phases=2 Bus1=215126402.1.3 Bus2=215126456.1.3 LineCode=1/0_ACSR_2PH_16KV_2 Length=0.066214 units=km
New Line.707528E$ND215126792 phases=2 Bus1=215126792.1.2 Bus2=215126604.1.2 LineCode=1/0_ACSR_2PH_16KV_2 Length=0.044736 units=km
New Line.4853647E$4858151E phases=3 Bus1=62904933.1.2.3 Bus2=222914818.1.2.3 LineCode=1/0_ACSR_3PH_16KV_3 Length=0.074278 units=km
New Line.ND62926204$813291E phases=2 Bus1=62926204.1.3 Bus2=62904958.1.3 LineCode=1/0_ACSR_2PH_16KV_2 Length=0.062993 units=km
New Line.707526E$ND215126792 phases=2 Bus1=215126792.1.2 Bus2=62905183.1.2 LineCode=1/0_ACSR_2PH_16KV_2 Length=0.088891 units=km
New Line.616823H$616824H phases=3 Bus1=62924496.1.2.3 Bus2=62905429.1.2.3 LineCode=1/0_ACSR_3PH_16KV_3 Length=0.034613 units=km
New Line.1306779E$640192H phases=3 Bus1=62905504.1.2.3 Bus2=62905529.1.2.3 LineCode=1/0_ACSR_3PH_16KV_3 Length=0.044716 units=km
New Line.ND62926204$813289E phases=2 Bus1=62926204.2.3 Bus2=62907054.2.3 LineCode=6_CU_2PH_16KV_2 Length=0.044436 units=km
New Line.1167538ESMD$215452470 phases=3 Bus1=62924881.1.2.3 Bus2=215452472.1.2.3 LineCode=2_CLP_3PH_16KV_3 Length=0.019531 units=km
New Line.616824H$4942425E phases=3 Bus1=62905429.1.2.3 Bus2=266937079.1.2.3 LineCode=1/0_ACSR_3PH_16KV_3 Length=0.036195 units=km
New Line.FD00146$288206828 phases=3 Bus1=288206711.1.2.3 Bus2=288206830.1.2.3 LineCode=1/0_JCN_3PH_16KV_3 Length=0.047817 units=km
New Line.B5398851-1$813289E phases=2 Bus1=62907055.2.3 Bus2=62905245.2.3 LineCode=2_CLP_2PH_16KV_2 Length=0.033848 units=km
New Line.288206828$P5785380-1 phases=3 Bus1=288206831.1.2.3 Bus2=288206753.1.2.3 LineCode=1/0_JCN_3PH_16KV_3 Length=0.001804 units=km
New Line.215452470$ND62905408 phases=3 Bus1=215452473.1.2.3 Bus2=62905386.1.2.3 LineCode=2_CLP_3PH_16KV_3 Length=0.005535 units=km
New Line.ND62926067$215466E phases=3 Bus1=62926067.1.2.3 Bus2=62924385.1.2.3 LineCode=336_ACSR_3PH_16KV_3 Length=0.032453 units=km
New Line.B5398852-1$B5398851-2 phases=2 Bus1=62905254.2.3 Bus2=62905317.2.3 LineCode=2_CLP_2PH_16KV_2 Length=0.03122 units=km
New Line.1657586E$PMS0718-1 phases=2 Bus1=62924693.2.3 Bus2=62924627.2.3 LineCode=2_CLP_2PH_16KV_2 Length=0.048873 units=km
New Line.FD32023$BS0455-1 phases=2 Bus1=62041145.1.3 Bus2=61999139.1.3 LineCode=2_CLP_2PH_16KV_2 Length=0.018624 units=km
New Line.ND165450802$1415835EPH phases=3 Bus1=165450802.1.2.3 Bus2=165450780.1.2.3 LineCode=4_CU_3PH_16KV_3 Length=0.002565 units=km
New Line.PMS0718-2$183091908 phases=2 Bus1=62924618.2.3 Bus2=183091911.2.3 LineCode=2_CLP_2PH_16KV_2 Length=0.029289 units=km
New Line.ND62926264$ND62926934 phases=2 Bus1=62926264.1.2 Bus2=62926934.1.2 LineCode=1/0_ACSR_2PH_16KV_2 Length=0.078083 units=km
New Line.1415834E$1415833E phases=3 Bus1=62924335.1.2.3 Bus2=227213185.1.2.3 LineCode=1/0_ACSR_3PH_16KV_3 Length=0.038584 units=km
New Line.B5306968-1$BS0455-1 phases=2 Bus1=61999140.1.3 Bus2=61998707.1.3 LineCode=2_CLP_2PH_16KV_2 Length=0.011542 units=km
New Line.ND62926934$857852E phases=2 Bus1=62926934.1.2 Bus2=62905945.1.2 LineCode=1/0_ACSR_2PH_16KV_2 Length=0.047947 units=km
New Line.2336185E$P5307692-1 phases=3 Bus1=62924868.1.2.3 Bus2=62905957.1.2.3 LineCode=2_CLP_3PH_16KV_3 Length=0.020892 units=km
New Line.858502E$858503E phases=3 Bus1=62905870.1.2.3 Bus2=86863369.1.2.3 LineCode=1/0_ACSR_3PH_16KV_3 Length=0.030506 units=km
New Line.1415835EPH$165450822 phases=3 Bus1=165450781.1.2.3 Bus2=165450824.1.2.3 LineCode=1/0_JCN_3PH_16KV_3 Length=0.018947 units=km
New Line.858503E$ND62905820 phases=3 Bus1=86863369.1.2.3 Bus2=62905820.1.2.3 LineCode=1/0_ACSR_3PH_16KV_3 Length=0.03434 units=km
New Line.183091908$ND62925885 phases=2 Bus1=183091910.2.3 Bus2=62925885.2.3 LineCode=2_CLP_2PH_16KV_2 Length=0.127121 units=km
New Line.BS0432-T$4340940EPH phases=2 Bus1=62041433.1.3 Bus2=103069866.1.3 LineCode=1/0_CLP_2PH_16KV_2 Length=0.054795 units=km
New Line.4617718EPH$P5605368-2 phases=3 Bus1=152073689.1.2.3 Bus2=152073723.1.2.3 LineCode=2_JCN_3PH_16KV_3 Length=0.012022 units=km
New Line.ND62925885$P5466100-1 phases=2 Bus1=62925885.2.3 Bus2=69928274.2.3 LineCode=2_CLP_2PH_16KV_2 Length=0.020611 units=km
New Line.ND62925885$P5466101-2 phases=2 Bus1=62925885.2.3 Bus2=69928356.2.3 LineCode=2_CLP_2PH_16KV_2 Length=0.032596 units=km
New Line.1656558EPH$ND62905820 phases=3 Bus1=62905820.1.2.3 Bus2=86863389.1.2.3 LineCode=1/0_ACSR_3PH_16KV_3 Length=0.034343 units=km
New Line.165450822$P5631161-1 phases=3 Bus1=165450825.1.2.3 Bus2=165450743.1.2.3 LineCode=1/0_JCN_3PH_16KV_3 Length=0.004262 units=km
New Line.B5306967-1$B5306968-2 phases=2 Bus1=61998716.1.3 Bus2=61998779.1.3 LineCode=2_CLP_2PH_16KV_2 Length=0.009872 units=km
New Line.2200581E$1809171E phases=3 Bus1=62040910.1.2.3 Bus2=62001014.1.2.3 LineCode=336_ACSR_3PH_16KV_3 Length=0.13009 units=km
New Line.1656558EPH$183091876 phases=3 Bus1=86863390.1.2.3 Bus2=183091878.1.2.3 LineCode=1/0_CLP_3PH_16KV_3 Length=0.066486 units=km
New Line.FD32158$ND191409364 phases=3 Bus1=62041129.1.2.3 Bus2=191409364.1.2.3 LineCode=2_JCN_3PH_16KV_3 Length=0.057833 units=km
New Line.BS0432-L$B5567260-2 phases=2 Bus1=103069849.1.3 Bus2=103069700.1.3 LineCode=2_CLP_2PH_16KV_2 Length=0.148541 units=km
New Line.ND191409364$BS0136-T phases=3 Bus1=191409364.1.2.3 Bus2=61999256.1.2.3 LineCode=1/0_JCN_3PH_16KV_3 Length=0.11311 units=km
New Line.B5062856-1$BS0432-R phases=2 Bus1=103069858.1.3 Bus2=62000253.1.3 LineCode=1/0_CLP_2PH_16KV_2 Length=0.036578 units=km
New Line.183091876$P5498286-1 phases=3 Bus1=183091879.1.2.3 Bus2=86863415.1.2.3 LineCode=1/0_CLP_3PH_16KV_3 Length=0.004365 units=km
New Line.B5567260-1$B5567261-2 phases=2 Bus1=103069691.1.3 Bus2=103069768.1.3 LineCode=2_CLP_2PH_16KV_2 Length=0.097564 units=km
New Line.4294938EPH$PS0247 phases=3 Bus1=62042703.1.2.3 Bus2=104900116.1.2.3 LineCode=336_ACSR_3PH_16KV_3 Length=0.030699 units=km
New Line.ND199834612$BS0136-R phases=2 Bus1=61999239.2.3 Bus2=199834612.2.3 LineCode=2_CIC_2PH_16KV_2 Length=0.114836 units=km
New Line.BS0136-L$B5022169-1 phases=2 Bus1=61999248.1.2 Bus2=61999067.1.2 LineCode=2_CLP_2PH_16KV_2 Length=0.049485 units=km
New Line.B5062856-2$B5062858-2 phases=2 Bus1=62000262.1.3 Bus2=62000190.1.3 LineCode=1/0_CLP_2PH_16KV_2 Length=0.071347 units=km
New Line.PS2085$ND243380189 phases=3 Bus1=243380189.1.2.3 Bus2=243380209.1.2.3 LineCode=1/0_ACSR_3PH_16KV_3 Length=0.004216 units=km
New Line.4294938EPH$ND206676102 phases=3 Bus1=104900117.1.2.3 Bus2=206676102.1.2.3 LineCode=1000_JCN_3PH_16KV_3 Length=0.117562 units=km
New Line.ND62069817$BS0135-1 phases=2 Bus1=62069817.2.3 Bus2=61999418.2.3 LineCode=2_CIC_2PH_16KV_2 Length=0.005772 units=km
New Line.J158B-1P$ND206676102 phases=3 Bus1=206676102.1.2.3 Bus2=104778925.1.2.3 LineCode=2_CLP_3PH_16KV_3 Length=0.104113 units=km
New Line.GS0918-3$ND206676102 phases=3 Bus1=206676102.1.2.3 Bus2=104901807.1.2.3 LineCode=350_CLP_3PH_16KV_3 Length=0.017979 units=km
New Line.2356062EPH$PS2085 phases=3 Bus1=243380208.1.2.3 Bus2=243380166.1.2.3 LineCode=1/0_ACSR_3PH_16KV_3 Length=0.006368 units=km
New Line.B5022169-2$B5022170-1 phases=2 Bus1=61999076.1.2 Bus2=61998995.1.2 LineCode=1/0_JCN_2PH_16KV_2 Length=0.053797 units=km
New Line.B5062858-1$B5062857-2 phases=2 Bus1=62000181.1.3 Bus2=62000118.1.3 LineCode=1/0_CLP_2PH_16KV_2 Length=0.052825 units=km
New Line.BS0135-1$J115A-3P phases=2 Bus1=61999419.2.3 Bus2=61999475.2.3 LineCode=2_CLP_2PH_16KV_2 Length=0.023751 units=km
New Line.P5761179-1$2356062EPH phases=3 Bus1=243380167.1.2.3 Bus2=243380129.1.2.3 LineCode=1/0_JCN_3PH_16KV_3 Length=0.044921 units=km
New Line.B5022170-2$B5022171-1 phases=2 Bus1=61999004.1.2 Bus2=61998923.1.2 LineCode=2_CIC_2PH_16KV_2 Length=0.041539 units=km
New Line.J547A-2P$J546A-2P phases=2 Bus1=61999582.2.3 Bus2=61999684.2.3 LineCode=2_CIC_2PH_16KV_2 Length=0.149778 units=km
New Line.4336753EPH$GS0918-4 phases=3 Bus1=104901815.1.2.3 Bus2=104899921.1.2.3 LineCode=1000_JCN_3PH_16KV_3 Length=0.107102 units=km
New Line.ND206676141$GS0918-2 phases=3 Bus1=104901791.1.2.3 Bus2=206676141.1.2.3 LineCode=350_CLP_3PH_16KV_3 Length=0.205985 units=km
New Line.GS0868-1$ND206676141 phases=3 Bus1=206676141.1.2.3 Bus2=104900444.1.2.3 LineCode=350_CLP_3PH_16KV_3 Length=0.199038 units=km
New Line.J158B-3P$200461162 phases=3 Bus1=104778933.1.2.3 Bus2=200461164.1.2.3 LineCode=2_CLP_3PH_16KV_3 Length=0.037188 units=km
New Line.ND206676141$P5706077-B phases=3 Bus1=206676141.1.2.3 Bus2=206675990.1.2.3 LineCode=1/0_JCN_3PH_16KV_3 Length=0.121349 units=km
New Line.B5430764-2$J115A-2P phases=2 Bus1=61999483.2.3 Bus2=61999355.2.3 LineCode=2_CIC_2PH_16KV_2 Length=0.067212 units=km
New Line.4336753EPH$ND104717124 phases=3 Bus1=104899920.1.2.3 Bus2=104717124.1.2.3 LineCode=336_ACSR_3PH_16KV_3 Length=0.017982 units=km
New Line.J158B-4P$J157A-1P phases=3 Bus1=104778941.1.2.3 Bus2=104899597.1.2.3 LineCode=2_CLP_3PH_16KV_3 Length=0.199663 units=km
New Line.B5022171-2$B5022172-2 phases=2 Bus1=61998932.1.2 Bus2=61998860.1.2 LineCode=2_CIC_2PH_16KV_2 Length=0.104226 units=km
New Line.J546A-1P$BS0574-1 phases=2 Bus1=61999668.2.3 Bus2=61999771.2.3 LineCode=1/0_CLP_2PH_16KV_2 Length=0.103825 units=km
New Line.200461162$P5414012-1 phases=3 Bus1=200461165.1.2.3 Bus2=62000926.1.2.3 LineCode=2_CLP_3PH_16KV_3 Length=0.003655 units=km
New Line.P5706078-1$P5706077-A phases=3 Bus1=206675972.1.2.3 Bus2=206675932.1.2.3 LineCode=1/0_JCN_3PH_16KV_3 Length=0.080494 units=km
New Line.B5354992-2$BS0574-1 phases=2 Bus1=61999772.2.3 Bus2=61999902.2.3 LineCode=1/0_CLP_2PH_16KV_2 Length=0.082695 units=km
New Line.4917049EPH$ND222665776 phases=3 Bus1=222665776.1.2.3 Bus2=222665753.1.2.3 LineCode=4_ACSR_3PH_16KV_3 Length=0.001776 units=km
New Line.B5354993-2$B5354992-1 phases=2 Bus1=61999893.2.3 Bus2=62000046.2.3 LineCode=1/0_CLP_2PH_16KV_2 Length=0.089786 units=km
New Line.4917049EPH$P5667867-1 phases=3 Bus1=222665754.1.2.3 Bus2=222665716.1.2.3 LineCode=1/0_JCN_3PH_16KV_3 Length=0.034303 units=km
New Line.B5354993-1$B5354994-2 phases=2 Bus1=62000037.2.3 Bus2=61999974.2.3 LineCode=1/0_CLP_2PH_16KV_2 Length=0.100522 units=km
New Line.ND204356343$4896912E phases=3 Bus1=204356343.1.2.3 Bus2=204356337.1.2.3 LineCode=1/0_ACSR_3PH_16KV_3 Length=0.032774 units=km
New Line.B5354994-1$B5354995-2 phases=2 Bus1=61999965.2.3 Bus2=61999830.2.3 LineCode=1/0_CLP_2PH_16KV_2 Length=0.04564 units=km
New Line.ND253162208$PS2064 phases=3 Bus1=253162208.1.2.3 Bus2=253162223.1.2.3 LineCode=1/0_ACSR_3PH_16KV_3 Length=0.051 units=km
New Line.ND203615055$BF11225 phases=3 Bus1=203615055.1.2.3 Bus2=203615157.1.2.3 LineCode=1/0_ACSR_3PH_16KV_3 Length=0.006535 units=km
New Line.PS2064$4287505E phases=3 Bus1=253162224.1.2.3 Bus2=253162186.1.2.3 LineCode=1/0_ACSR_3PH_16KV_3 Length=0.006537 units=km
New Line.PS0076$1365562E phases=3 Bus1=54009181.1.2.3 Bus2=54046623.1.2.3 LineCode=2/0_CU_3PH_16KV_3 Length=0.067431 units=km
New Line.2036635E$GS0268-2 phases=3 Bus1=54008904.1.2.3 Bus2=69409024.1.2.3 LineCode=750_CLP_3PH_16KV_3 Length=0.211869 units=km
New Line.ND203614804$BF11226 phases=3 Bus1=203614804.1.2.3 Bus2=203614814.1.2.3 LineCode=1/0_ACSR_3PH_16KV_3 Length=0.009409 units=km
New Line.ND203614554$BF11227 phases=3 Bus1=203614554.1.2.3 Bus2=203614578.1.2.3 LineCode=1/0_ACSR_3PH_16KV_3 Length=0.005917 units=km
New Line.BF11225$ND203615200 phases=3 Bus1=203615158.1.2.3 Bus2=203615200.1.2.3 LineCode=1/0_ACSR_3PH_16KV_3 Length=0.003715 units=km
New Line.4287505E$253162323 phases=3 Bus1=253162187.1.2.3 Bus2=253162325.1.2.3 LineCode=1/0_JCN_3PH_16KV_3 Length=0.109916 units=km
New Line.BF11226$ND203614950 phases=3 Bus1=203614815.1.2.3 Bus2=203614950.1.2.3 LineCode=1/0_ACSR_3PH_16KV_3 Length=0.008483 units=km
New Line.48546912E$ND203615200 phases=3 Bus1=203615200.1.2.3 Bus2=203615137.1.2.3 LineCode=1/0_ACSR_3PH_16KV_3 Length=0.090022 units=km
New Line.ND203615200$4522157E phases=3 Bus1=203615200.1.2.3 Bus2=203615227.1.2.3 LineCode=1/0_ACSR_3PH_16KV_3 Length=0.057485 units=km
New Line.ND204360487$4759090E phases=3 Bus1=204360487.1.2.3 Bus2=204360597.1.2.3 LineCode=1/0_ACSR_3PH_16KV_3 Length=0.067202 units=km
New Line.ND204360487$4851995E phases=3 Bus1=204360487.1.2.3 Bus2=204360664.1.2.3 LineCode=1/0_ACSR_3PH_16KV_3 Length=0.094825 units=km
New Line.ND162576069$GS0268-3 phases=3 Bus1=69409032.1.2.3 Bus2=162576069.1.2.3 LineCode=750_JCN_3PH_16KV_3 Length=0.634696 units=km
New Line.ND203614720$BF11227 phases=3 Bus1=203614579.1.2.3 Bus2=203614720.1.2.3 LineCode=1/0_ACSR_3PH_16KV_3 Length=0.003081 units=km
New Line.4815202E$ND203614950 phases=3 Bus1=203614950.1.2.3 Bus2=203614923.1.2.3 LineCode=1/0_ACSR_3PH_16KV_3 Length=0.103565 units=km
New Line.ND203614950$4815201E phases=3 Bus1=203614950.1.2.3 Bus2=203614977.1.2.3 LineCode=1/0_ACSR_3PH_16KV_3 Length=0.040076 units=km
New Line.4815204E$48546912E phases=3 Bus1=203615137.1.2.3 Bus2=203615084.1.2.3 LineCode=1/0_ACSR_3PH_16KV_3 Length=0.174882 units=km
New Line.4522157E$4821634E phases=3 Bus1=203615227.1.2.3 Bus2=203615265.1.2.3 LineCode=1/0_ACSR_3PH_16KV_3 Length=0.097646 units=km
New Line.4759090E$4851993E phases=3 Bus1=204360597.1.2.3 Bus2=204360609.1.2.3 LineCode=1/0_ACSR_3PH_16KV_3 Length=0.090775 units=km
New Line.4851995E$2011288E phases=3 Bus1=204360664.1.2.3 Bus2=204360676.1.2.3 LineCode=1/0_ACSR_3PH_16KV_3 Length=0.089406 units=km
New Line.4469105E$4857882E phases=3 Bus1=204360559.1.2.3 Bus2=236943140.1.2.3 LineCode=1/0_ACSR_3PH_16KV_3 Length=0.076404 units=km
New Line.253162323$P5716047-1 phases=3 Bus1=253162326.1.2.3 Bus2=253162273.1.2.3 LineCode=1/0_JCN_3PH_16KV_3 Length=0.003378 units=km
New Line.J846A-2P$GS0268-1 phases=3 Bus1=69409016.1.2.3 Bus2=54045930.1.2.3 LineCode=2_CLP_3PH_16KV_3 Length=0.029066 units=km
New Line.ND162576069$1809658E phases=3 Bus1=162576069.1.2.3 Bus2=15062270.1.2.3 LineCode=750_JCN_3PH_16KV_3 Length=0.103987 units=km
New Line.GS0271-1$ND162576069 phases=3 Bus1=162576069.1.2.3 Bus2=15062314.1.2.3 LineCode=750_CLP_3PH_16KV_3 Length=0.015322 units=km
New Line.533745H$4815202E phases=3 Bus1=203614923.1.2.3 Bus2=203614875.1.2.3 LineCode=1/0_ACSR_3PH_16KV_3 Length=0.130734 units=km
New Line.4815201E$4519313E phases=3 Bus1=203614977.1.2.3 Bus2=203614998.1.2.3 LineCode=1/0_ACSR_3PH_16KV_3 Length=0.097794 units=km
New Line.ND203615038$ND203614720 phases=3 Bus1=203614720.1.2.3 Bus2=203615038.1.2.3 LineCode=1/0_ACSR_3PH_16KV_3 Length=0.009276 units=km
New Line.4821634E$ND203615073 phases=3 Bus1=203615265.1.2.3 Bus2=203615073.1.2.3 LineCode=1/0_ACSR_3PH_16KV_3 Length=0.057927 units=km
New Line.4857882E$4857881E phases=3 Bus1=236943140.1.2.3 Bus2=204360506.1.2.3 LineCode=1/0_ACSR_3PH_16KV_3 Length=0.096012 units=km
New Line.4814295E$ND203615038 phases=3 Bus1=203615038.1.2.3 Bus2=203614686.1.2.3 LineCode=1/0_ACSR_3PH_16KV_3 Length=0.149684 units=km
New Line.4851988E$ND203615038 phases=3 Bus1=203615038.1.2.3 Bus2=203614747.1.2.3 LineCode=1/0_ACSR_3PH_16KV_3 Length=0.055432 units=km
New Line.ND203615073$1233986E phases=3 Bus1=203615073.1.2.3 Bus2=203615049.1.2.3 LineCode=1/0_ACSR_3PH_16KV_3 Length=0.050161 units=km
New Line.ND203615073$1866159E phases=3 Bus1=203615073.1.2.3 Bus2=203615067.1.2.3 LineCode=1/0_ACSR_3PH_16KV_3 Length=0.051646 units=km
New Line.857774E$4857450E phases=2 Bus1=62905058.2.3 Bus2=62924310.2.3 LineCode=1/0_ACSR_2PH_16KV_2 Length=0.078617 units=km
New Line.813291E$813292E phases=2 Bus1=62904958.1.3 Bus2=215126738.1.3 LineCode=1/0_ACSR_2PH_16KV_2 Length=0.045683 units=km
New Line.707526E$261274E phases=2 Bus1=62905183.1.2 Bus2=62905158.1.2 LineCode=6_CU_2PH_16KV_2 Length=0.101065 units=km
New Line.261267E$707528E phases=2 Bus1=215126604.1.2 Bus2=62905208.1.2 LineCode=1/0_ACSR_2PH_16KV_2 Length=0.07464 units=km
New Line.4858151E$4399666E phases=3 Bus1=222914818.1.2.3 Bus2=62907084.1.2.3 LineCode=1/0_ACSR_3PH_16KV_3 Length=0.064613 units=km
New Line.4399666E$1813247E phases=3 Bus1=222914773.1.2.3 Bus2=62907084.1.2.3 LineCode=4_ACSR_3PH_16KV_3 Length=0.078098 units=km
New Line.1813246E$4899673E phases=2 Bus1=215126456.1.3 Bus2=62924521.1.3 LineCode=1/0_ACSR_2PH_16KV_2 Length=0.089624 units=km
New Line.4857450E$4865700E phases=2 Bus1=62924310.2.3 Bus2=62926109.2.3 LineCode=1/0_ACSR_2PH_16KV_2 Length=0.036567 units=km
New Line.PS0115$ND62926648 phases=3 Bus1=62925639.1.2.3 Bus2=62926648.1.2.3 LineCode=2/0_CU_3PH_16KV_3 Length=0.102466 units=km
New Line.261267E$707532E phases=2 Bus1=62905208.1.2 Bus2=215126648.1.2 LineCode=1/0_ACSR_2PH_16KV_2 Length=0.081876 units=km
New Line.4899673E$4851266E phases=2 Bus1=62924521.1.3 Bus2=62904908.1.3 LineCode=1/0_ACSR_2PH_16KV_2 Length=0.111092 units=km
New Line.813292E$813294E phases=2 Bus1=215126738.1.3 Bus2=62905233.1.3 LineCode=1/0_ACSR_2PH_16KV_2 Length=0.056569 units=km
New Line.ND62926648$ND62926649 phases=3 Bus1=62926648.1.2.3 Bus2=62926649.1.2.3 LineCode=2/0_CU_3PH_16KV_3 Length=0.055652 units=km
New Line.ND62927178$ND62926648 phases=3 Bus1=62926648.1.2.3 Bus2=62927178.1.2.3 LineCode=336_ACSR_3PH_16KV_3 Length=0.052598 units=km
New Line.ND62927178$BF32442 phases=3 Bus1=62927178.1.2.3 Bus2=196432518.1.2.3 LineCode=1/0_ACSR_3PH_16KV_3 Length=0.039548 units=km
New Line.ND62926649$RCS1223 phases=3 Bus1=62926649.1.2.3 Bus2=62042517.1.2.3 LineCode=2/0_CU_3PH_16KV_3 Length=0.049808 units=km
New Line.ND62926649$1657586E phases=2 Bus1=62926649.2.3 Bus2=62924692.2.3 LineCode=2/0_CU_2PH_16KV_2 Length=0.005018 units=km
New Line.ND62927178$ND62926067 phases=3 Bus1=62927178.1.2.3 Bus2=62926067.1.2.3 LineCode=336_ACSR_3PH_16KV_3 Length=0.042815 units=km