! OpenDSS script generated from multiconductor network
Clear

New Circuit.mc_network basekv=12.0 pu=1.000000 angle=0.00 frequency=60.0 phases=3 Mvasc3=143993 Mvasc1=47997.6
~ bus1=-8888882139453.1.2.3

! Line codes
New LineCode.1/0_JCN_3PH_12KV_3 nphases=3 units=km Rmatrix=[ 0.079516 | 0 0.079516 | 0 0 0.079516 ] Xmatrix=[ 0.024304 | 0 0.024304 | 0 0 0.024304 ] Cmatrix=[ 0 | 0 0 | 0 0 0 ]
New LineCode.6_CU_3PH_12KV_3 nphases=3 units=km Rmatrix=[ 0.036525 | 0 0.036525 | 0 0 0.036525 ] Xmatrix=[ 0.012947 | 0 0.012947 | 0 0 0.012947 ] Cmatrix=[ 0 | 0 0 | 0 0 0 ]
New LineCode.4_ACSR_3PH_12KV_3 nphases=3 units=km Rmatrix=[ 0.107813 | 0 0.107813 | 0 0 0.107813 ] Xmatrix=[ 0.039561 | 0 0.039561 | 0 0 0.039561 ] Cmatrix=[ 0 | 0 0 | 0 0 0 ]
New LineCode.350_CLP_3PH_12KV_3 nphases=3 units=km Rmatrix=[ 0.023128 | 0 0.023128 | 0 0 0.023128 ] Xmatrix=[ 0.017573 | 0 0.017573 | 0 0 0.017573 ] Cmatrix=[ 0 | 0 0 | 0 0 0 ]
New LineCode.1/0_CLP_3PH_12KV_3 nphases=3 units=km Rmatrix=[ 0.004502 | 0 0.004502 | 0 0 0.004502 ] Xmatrix=[ 0.001376 | 0 0.001376 | 0 0 0.001376 ] Cmatrix=[ 0 | 0 0 | 0 0 0 ]
New LineCode.2_CLP_3PH_12KV_3 nphases=3 units=km Rmatrix=[ 0.157019 | 0 0.157019 | 0 0 0.157019 ] Xmatrix=[ 0.033097 | 0 0.033097 | 0 0 0.033097 ] Cmatrix=[ 0 | 0 0 | 0 0 0 ]
New LineCode.1/0_CLP_2PH_12KV_2 nphases=2 units=km Rmatrix=[ 0.000856 | 0 0.000856 ] Xmatrix=[ 0.000262 | 0 0.000262 ] Cmatrix=[ 0 | 0 0 ]
New LineCode.2_CIC_2PH_12KV_2 nphases=2 units=km Rmatrix=[ 0.039599 | 0 0.039599 ] Xmatrix=[ 0.008347 | 0 0.008347 ] Cmatrix=[ 0 | 0 0 ]
New LineCode.1/0_ACSR_3PH_12KV_3 nphases=3 units=km Rmatrix=[ 0.051038 | 0 0.051038 | 0 0 0.051038 ] Xmatrix=[ 0.040636 | 0 0.040636 | 0 0 0.040636 ] Cmatrix=[ 0 | 0 0 | 0 0 0 ]
New LineCode.2_CLP_2PH_12KV_2 nphases=2 units=km Rmatrix=[ 0.001389 | 0 0.001389 ] Xmatrix=[ 0.000293 | 0 0.000293 ] Cmatrix=[ 0 | 0 0 ]
New LineCode.1/0_AL_3PH_12KV_3 nphases=3 units=km Rmatrix=[ 0.041733 | 0 0.041733 | 0 0 0.041733 ] Xmatrix=[ 0.012756 | 0 0.012756 | 0 0 0.012756 ] Cmatrix=[ 0 | 0 0 | 0 0 0 ]
New LineCode.336_ACSR_3PH_12KV_3 nphases=3 units=km Rmatrix=[ 0.017945 | 0 0.017945 | 0 0 0.017945 ] Xmatrix=[ 0.040186 | 0 0.040186 | 0 0 0.040186 ] Cmatrix=[ 0 | 0 0 | 0 0 0 ]
New LineCode.4_CU_3PH_12KV_3 nphases=3 units=km Rmatrix=[ 0.10157 | 0 0.10157 | 0 0 0.10157 ] Xmatrix=[ 0.055356 | 0 0.055356 | 0 0 0.055356 ] Cmatrix=[ 0 | 0 0 | 0 0 0 ]
New LineCode.477_ACSR_3PH_12KV_3 nphases=3 units=km Rmatrix=[ 0.001577 | 0 0.001577 | 0 0 0.001577 ] Xmatrix=[ 0.004853 | 0 0.004853 | 0 0 0.004853 ] Cmatrix=[ 0 | 0 0 | 0 0 0 ]
New LineCode.4_ACSR_2PH_12KV_2 nphases=2 units=km Rmatrix=[ 0.068196 | 0 0.068196 ] Xmatrix=[ 0.025024 | 0 0.025024 ] Cmatrix=[ 0 | 0 0 ]
New LineCode.2/0_CU_3PH_12KV_3 nphases=3 units=km Rmatrix=[ 0.009365 | 0 0.009365 | 0 0 0.009365 ] Xmatrix=[ 0.014444 | 0 0.014444 | 0 0 0.014444 ] Cmatrix=[ 0 | 0 0 | 0 0 0 ]
New LineCode.1/0_CU_2PH_12KV_2 nphases=2 units=km Rmatrix=[ 0.001661 | 0 0.001661 ] Xmatrix=[ 0.002069 | 0 0.002069 ] Cmatrix=[ 0 | 0 0 ]
New LineCode.2_ACSR_3PH_12KV_3 nphases=3 units=km Rmatrix=[ 0.015786 | 0 0.015786 | 0 0 0.015786 ] Xmatrix=[ 0.008487 | 0 0.008487 | 0 0 0.008487 ] Cmatrix=[ 0 | 0 0 | 0 0 0 ]
New LineCode.1/0_CU_3PH_12KV_3 nphases=3 units=km Rmatrix=[ 0.005941 | 0 0.005941 | 0 0 0.005941 ] Xmatrix=[ 0.007398 | 0 0.007398 | 0 0 0.007398 ] Cmatrix=[ 0 | 0 0 | 0 0 0 ]
New LineCode.2_JCN_3PH_12KV_3 nphases=3 units=km Rmatrix=[ 0.014082 | 0 0.014082 | 0 0 0.014082 ] Xmatrix=[ 0.002968 | 0 0.002968 | 0 0 0.002968 ] Cmatrix=[ 0 | 0 0 | 0 0 0 ]
New LineCode.4/0_ACSR_3PH_12KV_3 nphases=3 units=km Rmatrix=[ 0.001004 | 0 0.001004 | 0 0 0.001004 ] Xmatrix=[ 0.001419 | 0 0.001419 | 0 0 0.001419 ] Cmatrix=[ 0 | 0 0 | 0 0 0 ]
New LineCode.6_CU_2PH_12KV_2 nphases=2 units=km Rmatrix=[ 0.561294 | 0 0.561294 ] Xmatrix=[ 0.198954 | 0 0.198954 ] Cmatrix=[ 0 | 0 0 ]
New LineCode.1/0_ACSR_2PH_12KV_2 nphases=2 units=km Rmatrix=[ 0.085242 | 0 0.085242 ] Xmatrix=[ 0.06787 | 0 0.06787 ] Cmatrix=[ 0 | 0 0 ]
New LineCode.2_CU_3PH_12KV_3 nphases=3 units=km Rmatrix=[ 0.055434 | 0 0.055434 | 0 0 0.055434 ] Xmatrix=[ 0.045081 | 0 0.045081 | 0 0 0.045081 ] Cmatrix=[ 0 | 0 0 | 0 0 0 ]
New LineCode.350_JCN_3PH_12KV_3 nphases=3 units=km Rmatrix=[ 0.003216 | 0 0.003216 | 0 0 0.003216 ] Xmatrix=[ 0.002444 | 0 0.002444 | 0 0 0.002444 ] Cmatrix=[ 0 | 0 0 | 0 0 0 ]
New LineCode.2_AL_3PH_12KV_3 nphases=3 units=km Rmatrix=[ 0.108089 | 0 0.108089 | 0 0 0.108089 ] Xmatrix=[ 0.022783 | 0 0.022783 | 0 0 0.022783 ] Cmatrix=[ 0 | 0 0 | 0 0 0 ]
New LineCode.1/0_ATW_3PH_12KV_3 nphases=3 units=km Rmatrix=[ 1e-05 | 0 1e-05 | 0 0 1e-05 ] Xmatrix=[ 1e-05 | 0 1e-05 | 0 0 1e-05 ] Cmatrix=[ 0 | 0 0 | 0 0 0 ]
New LineCode.750_CLP_3PH_12KV_3 nphases=3 units=km Rmatrix=[ 0.015532 | 0 0.015532 | 0 0 0.015532 ] Xmatrix=[ 0.019075 | 0 0.019075 | 0 0 0.019075 ] Cmatrix=[ 0 | 0 0 | 0 0 0 ]

! Lines
New Line.GFID5667$RCSG572-3 phases=3 Bus1=171489969.1.2.3 Bus2=-777777171489969.1.2.3 LineCode=1/0_JCN_3PH_12KV_3 Length=0.01148 units=km
New Line.RCSG571-3$GFID5666 phases=3 Bus1=171489666.1.2.3 Bus2=-777777171489666.1.2.3 LineCode=1/0_JCN_3PH_12KV_3 Length=0.237877 units=km
New Line.GFID5771$RCSG572-4 phases=3 Bus1=171489977.1.2.3 Bus2=-777777171489977.1.2.3 LineCode=1/0_JCN_3PH_12KV_3 Length=0.00693 units=km
New Line.ND16890064$ND199939214 phases=3 Bus1=16890064.1.2.3 Bus2=-77777716890064.1.2.3 LineCode=6_CU_3PH_12KV_3 Length=0.044499 units=km
New Line.1249979E$2123428E phases=3 Bus1=16075205.1.2.3 Bus2=-77777716075205.1.2.3 LineCode=4_ACSR_3PH_12KV_3 Length=0.033267 units=km
New Line.561271E$ND151812297 phases=3 Bus1=151812297.1.2.3 Bus2=105295984.1.2.3 LineCode=4_ACSR_3PH_12KV_3 Length=0.00544 units=km
New Line.561271E$P5583782 phases=3 Bus1=105295985.1.2.3 Bus2=134995980.1.2.3 LineCode=1/0_JCN_3PH_12KV_3 Length=0.048144 units=km
New Line.1813339E$ND16889137 phases=3 Bus1=16871531.1.2.3 Bus2=16889137.1.2.3 LineCode=350_CLP_3PH_12KV_3 Length=0.040212 units=km
New Line.ND16889137$PMH2438-1 phases=3 Bus1=16889137.1.2.3 Bus2=16871562.1.2.3 LineCode=350_CLP_3PH_12KV_3 Length=0.017664 units=km
New Line.ND16889137$PME2439-1 phases=3 Bus1=16889137.1.2.3 Bus2=16871646.1.2.3 LineCode=1/0_CLP_3PH_12KV_3 Length=0.009373 units=km
New Line.PME2439-2$P5464964-1 phases=3 Bus1=16871637.1.2.3 Bus2=16871715.1.2.3 LineCode=1/0_CLP_3PH_12KV_3 Length=0.006384 units=km
New Line.PMH2438-2$P5464966-1 phases=3 Bus1=16871553.1.2.3 Bus2=16871763.1.2.3 LineCode=1/0_CLP_3PH_12KV_3 Length=0.006386 units=km
New Line.182195048$4012883E phases=3 Bus1=16871100.1.2.3 Bus2=182195050.1.2.3 LineCode=2_CLP_3PH_12KV_3 Length=0.140382 units=km
New Line.BS5421-1$BF10113 phases=2 Bus1=16869829.2.3 Bus2=16854823.2.3 LineCode=1/0_CLP_2PH_12KV_2 Length=0.009829 units=km
New Line.1209831E$198849943 phases=3 Bus1=198849196.1.2.3 Bus2=198849945.1.2.3 LineCode=1/0_JCN_3PH_12KV_3 Length=0.071391 units=km
New Line.182195048$P5461864-1 phases=3 Bus1=182195051.1.2.3 Bus2=16871116.1.2.3 LineCode=2_CLP_3PH_12KV_3 Length=0.006616 units=km
New Line.B5205421-1$BS5421-1 phases=2 Bus1=16854824.2.3 Bus2=16854873.2.3 LineCode=1/0_CLP_2PH_12KV_2 Length=0.061058 units=km
New Line.4012886E$ND16890649 phases=2 Bus1=16871161.1.2 Bus2=16890649.1.2 LineCode=2_CIC_2PH_12KV_2 Length=0.049266 units=km
New Line.198849943$ND198849733 phases=3 Bus1=198849946.1.2.3 Bus2=198849733.1.2.3 LineCode=1/0_JCN_3PH_12KV_3 Length=0.005341 units=km
New Line.ND107659152$4696232E phases=3 Bus1=107659152.1.2.3 Bus2=107659100.1.2.3 LineCode=1/0_ACSR_3PH_12KV_3 Length=0.063767 units=km
New Line.P5455978-1$ND16890649 phases=2 Bus1=16890649.1.2 Bus2=16871180.1.2 LineCode=2_CIC_2PH_12KV_2 Length=0.08704 units=km
New Line.ND16890649$182195083 phases=2 Bus1=16890649.1.2 Bus2=182195085.1.2 LineCode=2_CIC_2PH_12KV_2 Length=0.105083 units=km
New Line.ND198849733$ND198849861 phases=3 Bus1=198849733.1.2.3 Bus2=198849861.1.2.3 LineCode=1/0_JCN_3PH_12KV_3 Length=0.003065 units=km
New Line.ND198849861$198849874 phases=3 Bus1=198849861.1.2.3 Bus2=198849877.1.2.3 LineCode=1/0_JCN_3PH_12KV_3 Length=0.006469 units=km
New Line.ND198849861$198849918 phases=3 Bus1=198849861.1.2.3 Bus2=198849921.1.2.3 LineCode=1/0_JCN_3PH_12KV_3 Length=0.008482 units=km
New Line.4696232E$PMS3015-1 phases=2 Bus1=107659101.1.3 Bus2=108005490.1.3 LineCode=2_CLP_2PH_12KV_2 Length=0.036671 units=km
New Line.B5205421-2$B5205422-1 phases=2 Bus1=16854882.2.3 Bus2=16854945.2.3 LineCode=1/0_CLP_2PH_12KV_2 Length=0.018059 units=km
New Line.182195083$P5455980-1 phases=2 Bus1=182195086.1.2 Bus2=16871252.1.2 LineCode=2_CIC_2PH_12KV_2 Length=0.002842 units=km
New Line.ND16889746$4515197E phases=3 Bus1=16889746.1.2.3 Bus2=16871849.1.2.3 LineCode=1/0_ACSR_3PH_12KV_3 Length=0.001965 units=km
New Line.198849874$1209833E phases=3 Bus1=198849876.1.2.3 Bus2=198849281.1.2.3 LineCode=1/0_JCN_3PH_12KV_3 Length=0.075346 units=km
New Line.198849918$198849374 phases=3 Bus1=198849920.1.2.3 Bus2=198849376.1.2.3 LineCode=1/0_JCN_3PH_12KV_3 Length=0.028162 units=km
New Line.PMS3015-1$ND148676028 phases=2 Bus1=108005491.1.3 Bus2=148676028.1.3 LineCode=2_CLP_2PH_12KV_2 Length=0.006977 units=km
New Line.POS6904-1$4044433E phases=3 Bus1=16854732.1.2.3 Bus2=16869607.1.2.3 LineCode=1/0_AL_3PH_12KV_3 Length=0.059199 units=km
New Line.4515197E$ND16888847 phases=3 Bus1=16871849.1.2.3 Bus2=16888847.1.2.3 LineCode=1/0_ACSR_3PH_12KV_3 Length=0.099405 units=km
New Line.ND148676028$108006005 phases=2 Bus1=148676028.1.3 Bus2=108006007.1.3 LineCode=2_CLP_2PH_12KV_2 Length=0.101525 units=km
New Line.ND148676028$148676035 phases=2 Bus1=148676028.1.3 Bus2=148676037.1.3 LineCode=2_CLP_2PH_12KV_2 Length=0.042394 units=km
New Line.B5205422-2$191286448 phases=2 Bus1=16854954.2.3 Bus2=191286450.2.3 LineCode=1/0_CLP_2PH_12KV_2 Length=0.072519 units=km
New Line.198849374$PME4054-1 phases=3 Bus1=198849377.1.2.3 Bus2=198849320.1.2.3 LineCode=1/0_JCN_3PH_12KV_3 Length=0.003116 units=km
New Line.PME6904-1$206705127 phases=3 Bus1=16869606.1.2.3 Bus2=206705129.1.2.3 LineCode=1/0_AL_3PH_12KV_3 Length=0.128358 units=km
New Line.108006005$P5607640-1 phases=2 Bus1=108006008.1.3 Bus2=108005628.1.3 LineCode=2_CLP_2PH_12KV_2 Length=0.00224 units=km
New Line.P5607639-1$148676035 phases=2 Bus1=148676038.1.3 Bus2=148675955.1.3 LineCode=2_CLP_2PH_12KV_2 Length=0.000997 units=km
New Line.191286448$B5205423-1 phases=2 Bus1=191286451.2.3 Bus2=16869205.2.3 LineCode=1/0_CLP_2PH_12KV_2 Length=0.00121 units=km
New Line.PME4054-1$198849401 phases=3 Bus1=198849321.1.2.3 Bus2=198849404.1.2.3 LineCode=1/0_JCN_3PH_12KV_3 Length=0.003656 units=km
New Line.206705127$P5393504-2 phases=3 Bus1=206705130.1.2.3 Bus2=16854760.1.2.3 LineCode=1/0_AL_3PH_12KV_3 Length=0.0012 units=km
New Line.4122558EP$PS3374 phases=3 Bus1=16870958.1.2.3 Bus2=151812254.1.2.3 LineCode=336_ACSR_3PH_12KV_3 Length=0.013965 units=km
New Line.PS3374$1895735E phases=3 Bus1=151812253.1.2.3 Bus2=154983474.1.2.3 LineCode=336_ACSR_3PH_12KV_3 Length=0.076685 units=km
New Line.1895735E$1572432E phases=3 Bus1=154983474.1.2.3 Bus2=157748789.1.2.3 LineCode=336_ACSR_3PH_12KV_3 Length=0.076685 units=km
New Line.1572432E$ND16892325 phases=3 Bus1=157748789.1.2.3 Bus2=16892325.1.2.3 LineCode=336_ACSR_3PH_12KV_3 Length=0.000206 units=km
New Line.ND16892325$ND151812297 phases=3 Bus1=16892325.1.2.3 Bus2=151812297.1.2.3 LineCode=1/0_ACSR_3PH_12KV_3 Length=0.047577 units=km
New Line.ND16889499$ND16892325 phases=3 Bus1=16892325.1.2.3 Bus2=16889499.1.2.3 LineCode=336_ACSR_3PH_12KV_3 Length=0.697084 units=km
New Line.ND151812297$1989166E phases=3 Bus1=151812297.1.2.3 Bus2=151812291.1.2.3 LineCode=1/0_ACSR_3PH_12KV_3 Length=0.117939 units=km
New Line.ND151812297$968730E phases=3 Bus1=151812297.1.2.3 Bus2=16836256.1.2.3 LineCode=4_ACSR_3PH_12KV_3 Length=0.069457 units=km
New Line.ND16889499$1783101E phases=3 Bus1=16889499.1.2.3 Bus2=16836306.1.2.3 LineCode=4_ACSR_3PH_12KV_3 Length=0.085614 units=km
New Line.590191E$ND16889499 phases=3 Bus1=16889499.1.2.3 Bus2=207486944.1.2.3 LineCode=336_ACSR_3PH_12KV_3 Length=0.131848 units=km
New Line.968730E$ND105296012 phases=3 Bus1=16836256.1.2.3 Bus2=105296012.1.2.3 LineCode=4_ACSR_3PH_12KV_3 Length=0.112932 units=km
New Line.1783101E$1783102E phases=3 Bus1=16836306.1.2.3 Bus2=138151278.1.2.3 LineCode=4_ACSR_3PH_12KV_3 Length=0.053699 units=km
New Line.590191E$ND16890952 phases=3 Bus1=207486944.1.2.3 Bus2=16890952.1.2.3 LineCode=336_ACSR_3PH_12KV_3 Length=0.030213 units=km
New Line.ND16890952$PS2167 phases=3 Bus1=16890952.1.2.3 Bus2=16092251.1.2.3 LineCode=4_CU_3PH_12KV_3 Length=0.065257 units=km
New Line.ND105296012$968732E phases=3 Bus1=105296012.1.2.3 Bus2=16836281.1.2.3 LineCode=4_ACSR_3PH_12KV_3 Length=0.061175 units=km
New Line.1783102E$685573E phases=3 Bus1=138151278.1.2.3 Bus2=16836356.1.2.3 LineCode=4_ACSR_3PH_12KV_3 Length=0.056208 units=km
New Line.ND16890952$ND16892182 phases=3 Bus1=16890952.1.2.3 Bus2=16892182.1.2.3 LineCode=336_ACSR_3PH_12KV_3 Length=0.052771 units=km
New Line.685573E$590655E phases=3 Bus1=16836356.1.2.3 Bus2=16836331.1.2.3 LineCode=4_ACSR_3PH_12KV_3 Length=0.048563 units=km
New Line.1895687E$ND16892182 phases=3 Bus1=16892182.1.2.3 Bus2=16874783.1.2.3 LineCode=6_CU_3PH_12KV_3 Length=0.018683 units=km
New Line.ND16892182$ND16889259 phases=3 Bus1=16892182.1.2.3 Bus2=16889259.1.2.3 LineCode=336_ACSR_3PH_12KV_3 Length=0.10499 units=km
New Line.ND16889259$ND16889270 phases=3 Bus1=16889259.1.2.3 Bus2=16889270.1.2.3 LineCode=336_ACSR_3PH_12KV_3 Length=0.068448 units=km
New Line.ND16889259$993951E phases=3 Bus1=16889259.1.2.3 Bus2=206438398.1.2.3 LineCode=336_ACSR_3PH_12KV_3 Length=0.068139 units=km
New Line.ND16889270$1813339E phases=3 Bus1=16889270.1.2.3 Bus2=16871530.1.2.3 LineCode=477_ACSR_3PH_12KV_3 Length=0.013064 units=km
New Line.993951E$PS0764 phases=3 Bus1=206438398.1.2.3 Bus2=16874800.1.2.3 LineCode=336_ACSR_3PH_12KV_3 Length=0.033521 units=km
New Line.ND16889270$ND16889271 phases=3 Bus1=16889270.1.2.3 Bus2=16889271.1.2.3 LineCode=336_ACSR_3PH_12KV_3 Length=0.045239 units=km
New Line.1895687E$ND16890267 phases=3 Bus1=16874782.1.2.3 Bus2=16890267.1.2.3 LineCode=6_CU_3PH_12KV_3 Length=0.187308 units=km
New Line.ND16889271$1813343E phases=3 Bus1=16889271.1.2.3 Bus2=16836541.1.2.3 LineCode=336_ACSR_3PH_12KV_3 Length=0.310235 units=km
New Line.ND16890267$2281701E phases=3 Bus1=16890267.1.2.3 Bus2=16869589.1.2.3 LineCode=6_CU_3PH_12KV_3 Length=0.147187 units=km
New Line.ND16889271$1732195E phases=3 Bus1=16889271.1.2.3 Bus2=16872864.1.2.3 LineCode=4_ACSR_3PH_12KV_3 Length=0.085326 units=km
New Line.1813343E$1813344E phases=3 Bus1=16836541.1.2.3 Bus2=206792813.1.2.3 LineCode=336_ACSR_3PH_12KV_3 Length=0.062536 units=km
New Line.1813344E$ND16889085 phases=3 Bus1=206792813.1.2.3 Bus2=16889085.1.2.3 LineCode=336_ACSR_3PH_12KV_3 Length=0.076261 units=km
New Line.ND16889085$1823246E phases=2 Bus1=16889085.1.2 Bus2=16836514.1.2 LineCode=4_ACSR_2PH_12KV_2 Length=0.044395 units=km
New Line.ND16889085$2299367E phases=3 Bus1=16889085.1.2.3 Bus2=16836645.1.2.3 LineCode=336_ACSR_3PH_12KV_3 Length=0.074257 units=km
New Line.ND16889085$BF12918 phases=3 Bus1=16889085.1.2.3 Bus2=198849156.1.2.3 LineCode=4_ACSR_3PH_12KV_3 Length=0.01625 units=km
New Line.2299367E$2299366E phases=3 Bus1=16836645.1.2.3 Bus2=16836674.1.2.3 LineCode=336_ACSR_3PH_12KV_3 Length=0.066772 units=km
New Line.2299366E$ND171504248 phases=3 Bus1=16836674.1.2.3 Bus2=171504248.1.2.3 LineCode=336_ACSR_3PH_12KV_3 Length=0.062155 units=km
New Line.BF12918$ND198849219 phases=3 Bus1=198849157.1.2.3 Bus2=198849219.1.2.3 LineCode=4_ACSR_3PH_12KV_3 Length=0.017219 units=km
New Line.ND198849219$ND16890838 phases=3 Bus1=198849219.1.2.3 Bus2=16890838.1.2.3 LineCode=4_ACSR_3PH_12KV_3 Length=0.051353 units=km
New Line.ND171504248$ND171504267 phases=3 Bus1=171504248.1.2.3 Bus2=171504267.1.2.3 LineCode=336_ACSR_3PH_12KV_3 Length=0.08441 units=km
New Line.ND171504248$ND202648105 phases=3 Bus1=171504248.1.2.3 Bus2=202648105.1.2.3 LineCode=2/0_CU_3PH_12KV_3 Length=0.000445 units=km
New Line.ND171504267$731710E phases=3 Bus1=171504267.1.2.3 Bus2=16854305.1.2.3 LineCode=1/0_ACSR_3PH_12KV_3 Length=0.040702 units=km
New Line.4012883E$ND202648105 phases=3 Bus1=202648105.1.2.3 Bus2=16871099.1.2.3 LineCode=1/0_ACSR_3PH_12KV_3 Length=0.001217 units=km
New Line.ND16890838$4368841E phases=2 Bus1=16890838.1.2 Bus2=16874272.1.2 LineCode=4_ACSR_2PH_12KV_2 Length=0.042021 units=km
New Line.ND202648105$PS3665 phases=3 Bus1=202648105.1.2.3 Bus2=180705607.1.2.3 LineCode=336_ACSR_3PH_12KV_3 Length=0.027664 units=km
New Line.ND16890838$ND198849240 phases=3 Bus1=16890838.1.2.3 Bus2=198849240.1.2.3 LineCode=4_ACSR_3PH_12KV_3 Length=0.058731 units=km
New Line.ND171504267$ND203278324 phases=3 Bus1=171504267.1.2.3 Bus2=203278324.1.2.3 LineCode=336_ACSR_3PH_12KV_3 Length=0.036315 units=km
New Line.731710E$BF10113 phases=3 Bus1=16854305.1.2.3 Bus2=16869828.1.2.3 LineCode=1/0_ACSR_3PH_12KV_3 Length=0.06491 units=km
New Line.4012885E$ND203278324 phases=3 Bus1=203278324.1.2.3 Bus2=16871930.1.2.3 LineCode=2/0_CU_3PH_12KV_3 Length=0.031213 units=km
New Line.4368841E$1209842E phases=2 Bus1=16874272.1.2 Bus2=16874297.1.2 LineCode=4_ACSR_2PH_12KV_2 Length=0.097531 units=km
New Line.1209831E$ND198849240 phases=3 Bus1=198849240.1.2.3 Bus2=198849195.1.2.3 LineCode=4_ACSR_3PH_12KV_3 Length=0.007383 units=km
New Line.ND16889020$PS3665 phases=3 Bus1=180705608.1.2.3 Bus2=16889020.1.2.3 LineCode=336_ACSR_3PH_12KV_3 Length=0.058157 units=km
New Line.4012885E$ND16891705 phases=3 Bus1=16871930.1.2.3 Bus2=16891705.1.2.3 LineCode=2/0_CU_3PH_12KV_3 Length=0.07273 units=km
New Line.ND16889020$FD10111 phases=2 Bus1=16889020.2.3 Bus2=16869812.2.3 LineCode=1/0_CU_2PH_12KV_2 Length=0.006947 units=km
New Line.ND16891705$4012886E phases=3 Bus1=16891705.1.2.3 Bus2=16871160.1.2.3 LineCode=2_ACSR_3PH_12KV_3 Length=0.015935 units=km
New Line.ND16891705$4012887E phases=3 Bus1=16891705.1.2.3 Bus2=16871901.1.2.3 LineCode=2/0_CU_3PH_12KV_3 Length=0.09163 units=km
New Line.ND16889020$ND171504294 phases=3 Bus1=16889020.1.2.3 Bus2=171504294.1.2.3 LineCode=336_ACSR_3PH_12KV_3 Length=0.01497 units=km
New Line.BF10112$ND171504294 phases=2 Bus1=171504294.1.3 Bus2=16869796.1.3 LineCode=1/0_CU_2PH_12KV_2 Length=0.004388 units=km
New Line.4013394E$ND171504294 phases=3 Bus1=171504294.1.2.3 Bus2=16871495.1.2.3 LineCode=336_ACSR_3PH_12KV_3 Length=0.081637 units=km
New Line.4012887E$ND16891105 phases=3 Bus1=16871901.1.2.3 Bus2=16891105.1.2.3 LineCode=2/0_CU_3PH_12KV_3 Length=0.089501 units=km
New Line.4013394E$ND107659152 phases=3 Bus1=16871495.1.2.3 Bus2=107659152.1.2.3 LineCode=336_ACSR_3PH_12KV_3 Length=0.063767 units=km
New Line.ND16891105$449452E phases=3 Bus1=16891105.1.2.3 Bus2=16854330.1.2.3 LineCode=4_ACSR_3PH_12KV_3 Length=0.076114 units=km
New Line.ND16891105$1388335E phases=3 Bus1=16891105.1.2.3 Bus2=16854357.1.2.3 LineCode=6_CU_3PH_12KV_3 Length=0.218859 units=km
New Line.ND16891105$2241899E phases=3 Bus1=16891105.1.2.3 Bus2=16855551.1.2.3 LineCode=2/0_CU_3PH_12KV_3 Length=0.148544 units=km
New Line.ND107659152$4227142E phases=3 Bus1=107659152.1.2.3 Bus2=16836703.1.2.3 LineCode=336_ACSR_3PH_12KV_3 Length=0.036194 units=km
New Line.1388335E$212130E phases=3 Bus1=16854357.1.2.3 Bus2=16855086.1.2.3 LineCode=6_CU_3PH_12KV_3 Length=0.063692 units=km
New Line.2241899E$ND16889558 phases=3 Bus1=16855551.1.2.3 Bus2=16889558.1.2.3 LineCode=2/0_CU_3PH_12KV_3 Length=0.070103 units=km
New Line.212130E$2186622E phases=3 Bus1=16855086.1.2.3 Bus2=16855057.1.2.3 LineCode=6_CU_3PH_12KV_3 Length=0.061164 units=km
New Line.ND16889558$4410754E phases=3 Bus1=16889558.1.2.3 Bus2=16855580.1.2.3 LineCode=2/0_CU_3PH_12KV_3 Length=0.070103 units=km
New Line.ND16889558$4367755E phases=3 Bus1=16889558.1.2.3 Bus2=16872394.1.2.3 LineCode=4_ACSR_3PH_12KV_3 Length=0.020146 units=km
New Line.4227142E$ND16889952 phases=3 Bus1=16836703.1.2.3 Bus2=16889952.1.2.3 LineCode=336_ACSR_3PH_12KV_3 Length=0.100257 units=km
New Line.ND16889952$4781675E phases=3 Bus1=16889952.1.2.3 Bus2=148345310.1.2.3 LineCode=336_ACSR_3PH_12KV_3 Length=0.105469 units=km
New Line.ND16889952$4044433E phases=3 Bus1=16889952.1.2.3 Bus2=16854731.1.2.3 LineCode=1/0_ACSR_3PH_12KV_3 Length=0.100257 units=km
New Line.2186622E$ND16889746 phases=3 Bus1=16855057.1.2.3 Bus2=16889746.1.2.3 LineCode=6_CU_3PH_12KV_3 Length=0.150066 units=km
New Line.4410754E$ND16890005 phases=3 Bus1=16855580.1.2.3 Bus2=16890005.1.2.3 LineCode=2/0_CU_3PH_12KV_3 Length=0.117376 units=km
New Line.4781675E$1351888E phases=3 Bus1=148345310.1.2.3 Bus2=16853983.1.2.3 LineCode=336_ACSR_3PH_12KV_3 Length=0.112441 units=km
New Line.ND16890005$2331287E phases=3 Bus1=16890005.1.2.3 Bus2=16855607.1.2.3 LineCode=4_ACSR_3PH_12KV_3 Length=0.130354 units=km
New Line.ND16890005$ND16905827 phases=3 Bus1=16890005.1.2.3 Bus2=16905827.1.2.3 LineCode=2/0_CU_3PH_12KV_3 Length=0.070673 units=km
New Line.1351888E$ND16889489 phases=3 Bus1=16853983.1.2.3 Bus2=16889489.1.2.3 LineCode=1/0_CU_3PH_12KV_3 Length=0.015748 units=km
New Line.ND16905827$ND16892147 phases=3 Bus1=16905827.1.2.3 Bus2=16892147.1.2.3 LineCode=2/0_CU_3PH_12KV_3 Length=0.122471 units=km
New Line.ND16905827$ND179846044 phases=3 Bus1=16905827.1.2.3 Bus2=179846044.1.2.3 LineCode=1/0_ACSR_3PH_12KV_3 Length=0.036167 units=km
New Line.1209834E$1209833E phases=3 Bus1=198849276.1.2.3 Bus2=16836568.1.2.3 LineCode=4_ACSR_3PH_12KV_3 Length=0.158561 units=km
New Line.ND16889489$4013088E phases=3 Bus1=16889489.1.2.3 Bus2=16854162.1.2.3 LineCode=336_ACSR_3PH_12KV_3 Length=0.047031 units=km
New Line.ND179846044$531951E phases=3 Bus1=179846044.1.2.3 Bus2=16855634.1.2.3 LineCode=1/0_ACSR_3PH_12KV_3 Length=0.061774 units=km
New Line.ND16892147$4541862E phases=3 Bus1=16892147.1.2.3 Bus2=16872947.1.2.3 LineCode=6_CU_3PH_12KV_3 Length=0.058879 units=km
New Line.RCS1985$ND16892147 phases=3 Bus1=16892147.1.2.3 Bus2=16888628.1.2.3 LineCode=2/0_CU_3PH_12KV_3 Length=0.110175 units=km
New Line.ND16889454$ND16888847 phases=3 Bus1=16888847.1.2.3 Bus2=16889454.1.2.3 LineCode=1/0_ACSR_3PH_12KV_3 Length=0.053269 units=km
New Line.ND16889489$BF12414 phases=3 Bus1=16889489.1.2.3 Bus2=203278157.1.2.3 LineCode=4_ACSR_3PH_12KV_3 Length=0.025504 units=km
New Line.4541862E$511419E phases=3 Bus1=16872947.1.2.3 Bus2=16856139.1.2.3 LineCode=6_CU_3PH_12KV_3 Length=0.038366 units=km
New Line.1209834E$1209836E phases=2 Bus1=16836568.2.3 Bus2=16871874.2.3 LineCode=4_ACSR_2PH_12KV_2 Length=0.10248 units=km
New Line.ND16889454$4478992E phases=3 Bus1=16889454.1.2.3 Bus2=16873026.1.2.3 LineCode=4_ACSR_3PH_12KV_3 Length=0.108528 units=km
New Line.4013088E$ND16889547 phases=3 Bus1=16854162.1.2.3 Bus2=16889547.1.2.3 LineCode=336_ACSR_3PH_12KV_3 Length=0.106933 units=km
New Line.582700E$ND16889454 phases=3 Bus1=16889454.1.2.3 Bus2=16906765.1.2.3 LineCode=1/0_ACSR_3PH_12KV_3 Length=0.008819 units=km
New Line.531951E$4367754E phases=3 Bus1=16855634.1.2.3 Bus2=194200178.1.2.3 LineCode=1/0_ACSR_3PH_12KV_3 Length=0.354555 units=km
New Line.ND16889746$ND239206263 phases=3 Bus1=16889746.1.2.3 Bus2=-77777716889746.1.2.3 LineCode=1/0_ACSR_3PH_12KV_3 Length=0.091978 units=km
New Line.BF12414$4781401E phases=3 Bus1=203278158.1.2.3 Bus2=16854135.1.2.3 LineCode=4_ACSR_3PH_12KV_3 Length=0.019072 units=km
New Line.582700E$311209E phases=3 Bus1=16906765.1.2.3 Bus2=16869864.1.2.3 LineCode=1/0_ACSR_3PH_12KV_3 Length=0.030226 units=km
New Line.4478992E$1312854E phases=3 Bus1=16873026.1.2.3 Bus2=16873051.1.2.3 LineCode=4_ACSR_3PH_12KV_3 Length=0.079454 units=km
New Line.ND16889547$ND16889299 phases=3 Bus1=16889547.1.2.3 Bus2=16889299.1.2.3 LineCode=336_ACSR_3PH_12KV_3 Length=0.149421 units=km
New Line.4367754E$ND16890064 phases=3 Bus1=194200178.1.2.3 Bus2=16890064.1.2.3 LineCode=1/0_ACSR_3PH_12KV_3 Length=0.132788 units=km
New Line.ND16889547$BF12413 phases=3 Bus1=16889547.1.2.3 Bus2=203278118.1.2.3 LineCode=1/0_ACSR_3PH_12KV_3 Length=0.062161 units=km
New Line.4781401E$4680383E phases=3 Bus1=16854135.1.2.3 Bus2=101907916.1.2.3 LineCode=4_ACSR_3PH_12KV_3 Length=0.129011 units=km
New Line.ND16890064$4148275E phases=3 Bus1=16890064.1.2.3 Bus2=16872159.1.2.3 LineCode=6_CU_3PH_12KV_3 Length=0.076139 units=km
New Line.ND16889299$4296008E phases=3 Bus1=16889299.1.2.3 Bus2=16872367.1.2.3 LineCode=336_ACSR_3PH_12KV_3 Length=0.085304 units=km
New Line.311209E$ND16889687 phases=3 Bus1=16869864.1.2.3 Bus2=16889687.1.2.3 LineCode=1/0_ACSR_3PH_12KV_3 Length=0.045202 units=km
New Line.ND16890064$ND16890065 phases=3 Bus1=16890064.1.2.3 Bus2=16890065.1.2.3 LineCode=6_CU_3PH_12KV_3 Length=0.115888 units=km
New Line.ND16889299$BF12412 phases=2 Bus1=16889299.1.3 Bus2=203278071.1.3 LineCode=4_ACSR_2PH_12KV_2 Length=0.042885 units=km
New Line.198849401$198849533 phases=3 Bus1=198849403.1.2.3 Bus2=198849535.1.2.3 LineCode=1/0_JCN_3PH_12KV_3 Length=0.112714 units=km
New Line.108006032$P5607640-2 phases=2 Bus1=108005637.1.3 Bus2=108006035.1.3 LineCode=2_CLP_2PH_12KV_2 Length=0.001044 units=km
New Line.2281701E$P5178147-1 phases=3 Bus1=16869590.1.2.3 Bus2=16854371.1.2.3 LineCode=6_CU_3PH_12KV_3 Length=0.079666 units=km
New Line.POS5740-1$FD10111 phases=2 Bus1=16869813.2.3 Bus2=95142177.2.3 LineCode=1/0_CU_2PH_12KV_2 Length=0.065564 units=km
New Line.BF10112$BS8650-1 phases=2 Bus1=16869797.1.3 Bus2=16854541.1.3 LineCode=1/0_CU_2PH_12KV_2 Length=0.024518 units=km
New Line.B5350736-2$POS5740-1 phases=2 Bus1=95142178.2.3 Bus2=16854478.2.3 LineCode=1/0_CU_2PH_12KV_2 Length=0.00474 units=km
New Line.B5309882-2$BS8650-1 phases=2 Bus1=16854542.1.3 Bus2=16854672.1.3 LineCode=1/0_CU_2PH_12KV_2 Length=0.055403 units=km
New Line.B5350737-1$B5350736-1 phases=2 Bus1=16854469.2.3 Bus2=16869728.2.3 LineCode=1/0_CU_2PH_12KV_2 Length=0.056074 units=km
New Line.B5309882-1$B5309883-2 phases=2 Bus1=16854663.1.3 Bus2=16854600.1.3 LineCode=1/0_CU_2PH_12KV_2 Length=0.107911 units=km
New Line.B5350737-2$B5350738-1 phases=2 Bus1=16869737.2.3 Bus2=16869656.2.3 LineCode=1/0_CU_2PH_12KV_2 Length=0.052074 units=km
New Line.P5712409-2$198849560 phases=3 Bus1=198849462.1.2.3 Bus2=198849563.1.2.3 LineCode=1/0_JCN_3PH_12KV_3 Length=0.001496 units=km
New Line.198849560$198849671 phases=3 Bus1=198849562.1.2.3 Bus2=198849673.1.2.3 LineCode=1/0_JCN_3PH_12KV_3 Length=0.134572 units=km
New Line.P5607642-1$108006102 phases=2 Bus1=108005729.1.3 Bus2=108006105.1.3 LineCode=2_CLP_2PH_12KV_2 Length=0.015841 units=km
New Line.198849671$P5712411-1 phases=3 Bus1=198849674.1.2.3 Bus2=198849591.1.2.3 LineCode=1/0_JCN_3PH_12KV_3 Length=0.00116 units=km
New Line.108006147$108006102 phases=2 Bus1=108006104.1.3 Bus2=108006149.1.3 LineCode=2_CLP_2PH_12KV_2 Length=0.114302 units=km
New Line.P5607644-2$108006147 phases=2 Bus1=108006150.1.3 Bus2=108005838.1.3 LineCode=2_CLP_2PH_12KV_2 Length=0.001799 units=km
New Line.PH457$P5923513-1 phases=3 Bus1=16081463.1.2.3 Bus2=16084998.1.2.3 LineCode=1/0_CLP_3PH_12KV_3 Length=0.050633 units=km
New Line.P5712411-2$198849698 phases=3 Bus1=198849600.1.2.3 Bus2=198849701.1.2.3 LineCode=1/0_JCN_3PH_12KV_3 Length=0.001413 units=km
New Line.198849533$P5712409-1 phases=3 Bus1=198849536.1.2.3 Bus2=198849453.1.2.3 LineCode=1/0_JCN_3PH_12KV_3 Length=0.001891 units=km
New Line.206705115$P5393504-1 phases=3 Bus1=16854751.1.2.3 Bus2=206705118.1.2.3 LineCode=1/0_AL_3PH_12KV_3 Length=0.001187 units=km
New Line.108006032$108006067 phases=2 Bus1=108006034.1.3 Bus2=108006069.1.3 LineCode=2_CLP_2PH_12KV_2 Length=0.149393 units=km
New Line.1250033E$RCS0140 phases=3 Bus1=16854249.1.2.3 Bus2=16093851.1.2.3 LineCode=336_ACSR_3PH_12KV_3 Length=0.099094 units=km
New Line.198849698$198849814 phases=3 Bus1=198849700.1.2.3 Bus2=198849816.1.2.3 LineCode=1/0_JCN_3PH_12KV_3 Length=0.099616 units=km
New Line.P5607644-1$108006182 phases=2 Bus1=108005829.1.3 Bus2=108006185.1.3 LineCode=2_CLP_2PH_12KV_2 Length=0.000139 units=km
New Line.4696858E$201278707 phases=3 Bus1=102811934.1.2.3 Bus2=201278709.1.2.3 LineCode=2_CLP_3PH_12KV_3 Length=0.023529 units=km
New Line.198849814$P5712413-1 phases=3 Bus1=198849817.1.2.3 Bus2=198849747.1.2.3 LineCode=1/0_JCN_3PH_12KV_3 Length=0.001613 units=km
New Line.201278707$P5590318 phases=3 Bus1=201278710.1.2.3 Bus2=102811982.1.2.3 LineCode=2_CLP_3PH_12KV_3 Length=0.012767 units=km
New Line.108006182$108006207 phases=2 Bus1=108006184.1.3 Bus2=108006209.1.3 LineCode=2_CLP_2PH_12KV_2 Length=0.139954 units=km
New Line.ND203364613$1571976E phases=3 Bus1=203364613.1.2.3 Bus2=203364607.1.2.3 LineCode=1/0_ACSR_3PH_12KV_3 Length=0.042762 units=km
New Line.108006207$P5607646-1 phases=2 Bus1=108006210.1.3 Bus2=108005915.1.3 LineCode=2_CLP_2PH_12KV_2 Length=0.001246 units=km
New Line.ND245501768$4978987E phases=3 Bus1=245501768.1.2.3 Bus2=245501806.1.2.3 LineCode=1/0_ACSR_3PH_12KV_3 Length=0.089288 units=km
New Line.206705075$4012733E phases=3 Bus1=148140176.1.2.3 Bus2=206705077.1.2.3 LineCode=2_JCN_3PH_12KV_3 Length=0.068509 units=km
New Line.206705075$P5619260 phases=3 Bus1=206705078.1.2.3 Bus2=148140222.1.2.3 LineCode=2_JCN_3PH_12KV_3 Length=0.012635 units=km
New Line.ND182459384$4662818E phases=3 Bus1=16081573.1.2.3 Bus2=182459384.1.2.3 LineCode=336_ACSR_3PH_12KV_3 Length=0.006359 units=km
New Line.RCS3971$ND182459384 phases=3 Bus1=182459384.1.2.3 Bus2=203823411.1.2.3 LineCode=336_ACSR_3PH_12KV_3 Length=0.111413 units=km
New Line.4296008E$4677477E phases=3 Bus1=16872367.1.2.3 Bus2=16854278.1.2.3 LineCode=336_ACSR_3PH_12KV_3 Length=0.157605 units=km
New Line.ND16889687$1134340E phases=3 Bus1=16889687.1.2.3 Bus2=16855113.1.2.3 LineCode=4_ACSR_3PH_12KV_3 Length=0.073684 units=km
New Line.ND16889687$1428447E phases=3 Bus1=16889687.1.2.3 Bus2=16855138.1.2.3 LineCode=1/0_ACSR_3PH_12KV_3 Length=0.115105 units=km
New Line.ND16890065$312462E phases=3 Bus1=16890065.1.2.3 Bus2=16855661.1.2.3 LineCode=6_CU_3PH_12KV_3 Length=0.058848 units=km
New Line.BF12413$4368637E phases=3 Bus1=203278119.1.2.3 Bus2=16874003.1.2.3 LineCode=1/0_ACSR_3PH_12KV_3 Length=0.051457 units=km
New Line.4680383E$ND16889996 phases=3 Bus1=101907916.1.2.3 Bus2=16889996.1.2.3 LineCode=4_ACSR_3PH_12KV_3 Length=0.077848 units=km
New Line.4148275E$ND16891810 phases=3 Bus1=16872159.1.2.3 Bus2=16891810.1.2.3 LineCode=6_CU_3PH_12KV_3 Length=0.007269 units=km