! OpenDSS script generated from multiconductor network
Clear

New Circuit.mc_network basekv=12.0 pu=1.000000 angle=0.00 frequency=60.0 phases=3 Mvasc3=143993 Mvasc1=47997.6
~ bus1=-8888882162959.1.2.3

! Line codes
New LineCode.2_CLP_1PH_12KV_1 nphases=1 units=km Rmatrix=[ 0.158777 ] Xmatrix=[ 0.033467 ] Cmatrix=[ 0 ]
New LineCode.1/0_JCN_3PH_12KV_3 nphases=3 units=km Rmatrix=[ 0.11038 | 0 0.11038 | 0 0 0.11038 ] Xmatrix=[ 0.033737 | 0 0.033737 | 0 0 0.033737 ] Cmatrix=[ 0 | 0 0 | 0 0 0 ]
New LineCode.1/0_JCN_1PH_12KV_1 nphases=1 units=km Rmatrix=[ 0.000501 ] Xmatrix=[ 0.000153 ] Cmatrix=[ 0 ]
New LineCode.1/0_JCN_2PH_12KV_2 nphases=2 units=km Rmatrix=[ 0.00219 | 0 0.00219 ] Xmatrix=[ 0.000669 | 0 0.000669 ] Cmatrix=[ 0 | 0 0 ]
New LineCode.1000_JCN_3PH_12KV_3 nphases=3 units=km Rmatrix=[ 0.0258 | 0 0.0258 | 0 0 0.0258 ] Xmatrix=[ 0.039053 | 0 0.039053 | 0 0 0.039053 ] Cmatrix=[ 0 | 0 0 | 0 0 0 ]
New LineCode.350_JCN_3PH_12KV_3 nphases=3 units=km Rmatrix=[ 0.035446 | 0 0.035446 | 0 0 0.035446 ] Xmatrix=[ 0.026932 | 0 0.026932 | 0 0 0.026932 ] Cmatrix=[ 0 | 0 0 | 0 0 0 ]
New LineCode.1000_CLP_3PH_12KV_3 nphases=3 units=km Rmatrix=[ 0.001291 | 0 0.001291 | 0 0 0.001291 ] Xmatrix=[ 0.001954 | 0 0.001954 | 0 0 0.001954 ] Cmatrix=[ 0 | 0 0 | 0 0 0 ]
New LineCode.1/0_CLP_3PH_12KV_3 nphases=3 units=km Rmatrix=[ 0.006041 | 0 0.006041 | 0 0 0.006041 ] Xmatrix=[ 0.001846 | 0 0.001846 | 0 0 0.001846 ] Cmatrix=[ 0 | 0 0 | 0 0 0 ]
New LineCode.2_CLP_3PH_12KV_3 nphases=3 units=km Rmatrix=[ 0.261017 | 0 0.261017 | 0 0 0.261017 ] Xmatrix=[ 0.055017 | 0 0.055017 | 0 0 0.055017 ] Cmatrix=[ 0 | 0 0 | 0 0 0 ]
New LineCode.2_CLP_2PH_12KV_2 nphases=2 units=km Rmatrix=[ 0.000675 | 0 0.000675 ] Xmatrix=[ 0.000142 | 0 0.000142 ] Cmatrix=[ 0 | 0 0 ]
New LineCode.__1PH_12KV_1 nphases=1 units=km Rmatrix=[ 1e-05 ] Xmatrix=[ 1e-05 ] Cmatrix=[ 0 ]

! Lines
New Line.90914926$P5552822-1 phases=1 Bus1=90914929.3 Bus2=90913769.3 LineCode=2_CLP_1PH_12KV_1 Length=0.004537 units=km
New Line.90915523$90915545 phases=1 Bus1=90915543.1 Bus2=90915521.1 LineCode=2_CLP_1PH_12KV_1 Length=0.157723 units=km
New Line.90915611$90915633 phases=1 Bus1=90915609.1 Bus2=90915631.1 LineCode=2_CLP_1PH_12KV_1 Length=0.205968 units=km
New Line.94415565$94415575 phases=1 Bus1=94415567.3 Bus2=94415577.3 LineCode=2_CLP_1PH_12KV_1 Length=0.131578 units=km
New Line.94416426$94416436 phases=1 Bus1=94416428.2 Bus2=94416438.2 LineCode=2_CLP_1PH_12KV_1 Length=0.098011 units=km
New Line.P5572582-1$95142128 phases=1 Bus1=95142031.2 Bus2=95142131.2 LineCode=2_CLP_1PH_12KV_1 Length=0.001964 units=km
New Line.95737562$ND147888955 phases=1 Bus1=147888955.2 Bus2=95737564.2 LineCode=2_CLP_1PH_12KV_1 Length=0.055419 units=km
New Line.J930-2P$188497565 phases=3 Bus1=188497247.1.2.3 Bus2=188497568.1.2.3 LineCode=1/0_JCN_3PH_12KV_3 Length=0.001725 units=km
New Line.196482638$196482601 phases=1 Bus1=196482640.3 Bus2=196482603.3 LineCode=1/0_JCN_1PH_12KV_1 Length=0.052503 units=km
New Line.201183165$201183190 phases=1 Bus1=201183167.1 Bus2=201183192.1 LineCode=1/0_JCN_1PH_12KV_1 Length=0.111368 units=km
New Line.P5739293-2$ND211075549 phases=1 Bus1=211075316.3 Bus2=211075549.3 LineCode=1/0_JCN_1PH_12KV_1 Length=0.004235 units=km
New Line.213788024$P5739344-1 phases=1 Bus1=213788027.1 Bus2=213787524.1 LineCode=1/0_JCN_1PH_12KV_1 Length=0.001945 units=km
New Line.PME3686-2$240140171 phases=1 Bus1=94554624.2 Bus2=240140174.2 LineCode=2_CLP_1PH_12KV_1 Length=0.235681 units=km
New Line.J146-3P$243969091 phases=2 Bus1=243969094.1.2 Bus2=243968062.1.2 LineCode=1/0_JCN_2PH_12KV_2 Length=0.00081 units=km
New Line.90915105$90915127 phases=1 Bus1=90915103.2 Bus2=90915125.2 LineCode=2_CLP_1PH_12KV_1 Length=0.105955 units=km
New Line.90915237$90915198 phases=1 Bus1=90915196.1 Bus2=90915235.1 LineCode=2_CLP_1PH_12KV_1 Length=0.153443 units=km
New Line.94557063$P5549849-1 phases=1 Bus1=94557066.3 Bus2=94556968.3 LineCode=2_CLP_1PH_12KV_1 Length=0.002043 units=km
New Line.P5572574-1$96130033 phases=1 Bus1=96129958.1 Bus2=96130036.1 LineCode=2_CLP_1PH_12KV_1 Length=0.003647 units=km
New Line.J930-3P$188497631 phases=1 Bus1=188497239.1 Bus2=188497634.1 LineCode=1/0_JCN_1PH_12KV_1 Length=0.002268 units=km
New Line.196117078$196117045 phases=1 Bus1=196117080.1 Bus2=196117047.1 LineCode=1/0_JCN_1PH_12KV_1 Length=0.012502 units=km
New Line.196117130$196117250 phases=3 Bus1=196117132.1.2.3 Bus2=196117252.1.2.3 LineCode=1/0_JCN_3PH_12KV_3 Length=0.174444 units=km
New Line.P5718895-2$198848984 phases=1 Bus1=198848309.3 Bus2=198848987.3 LineCode=1/0_JCN_1PH_12KV_1 Length=0.002037 units=km
New Line.199559642$199559672 phases=1 Bus1=199559644.1 Bus2=199559674.1 LineCode=1/0_JCN_1PH_12KV_1 Length=0.148264 units=km
New Line.201183090$201183065 phases=1 Bus1=201183092.1 Bus2=201183067.1 LineCode=1/0_JCN_1PH_12KV_1 Length=0.072885 units=km
New Line.ND211075549$211075711 phases=1 Bus1=211075549.3 Bus2=211075714.3 LineCode=1/0_JCN_1PH_12KV_1 Length=0.002484 units=km
New Line.ND211075549$211075736 phases=1 Bus1=211075549.3 Bus2=211075739.3 LineCode=1/0_JCN_1PH_12KV_1 Length=0.003617 units=km
New Line.ND237381002$237381067 phases=3 Bus1=237381070.1.2.3 Bus2=237381002.1.2.3 LineCode=1/0_JCN_3PH_12KV_3 Length=0.006477 units=km
New Line.238425343$GS2859-2 phases=3 Bus1=238424421.1.2.3 Bus2=238425345.1.2.3 LineCode=1/0_JCN_3PH_12KV_3 Length=0.122392 units=km
New Line.PME3686-1$240140130 phases=1 Bus1=94554642.1 Bus2=240140133.1 LineCode=2_CLP_1PH_12KV_1 Length=0.103634 units=km
New Line.90915633$P5552843-2 phases=1 Bus1=90915636.1 Bus2=90912929.1 LineCode=2_CLP_1PH_12KV_1 Length=0.001874 units=km
New Line.90915523$P5552845-1 phases=1 Bus1=90915526.1 Bus2=90913124.1 LineCode=2_CLP_1PH_12KV_1 Length=0.004723 units=km
New Line.94336734$P5563270-2 phases=1 Bus1=94336421.2 Bus2=94336737.2 LineCode=2_CLP_1PH_12KV_1 Length=0.001372 units=km
New Line.94415575$P5572188-2 phases=1 Bus1=94415578.3 Bus2=94415137.3 LineCode=2_CLP_1PH_12KV_1 Length=0.005337 units=km
New Line.94416436$P5571844-1 phases=1 Bus1=94416439.2 Bus2=94416333.2 LineCode=2_CLP_1PH_12KV_1 Length=0.004932 units=km
New Line.94557508$P5572889-2 phases=1 Bus1=94557763.1 Bus2=94557511.1 LineCode=2_CLP_1PH_12KV_1 Length=0.004032 units=km
New Line.95142128$95737463 phases=1 Bus1=95142130.2 Bus2=95737465.2 LineCode=2_CLP_1PH_12KV_1 Length=0.157553 units=km
New Line.95737562$P5572581-1 phases=1 Bus1=95737565.2 Bus2=95737499.2 LineCode=2_CLP_1PH_12KV_1 Length=0.003167 units=km
New Line.ND192319722$188497565 phases=3 Bus1=188497567.1.2.3 Bus2=192319722.1.2.3 LineCode=1/0_JCN_3PH_12KV_3 Length=0.252955 units=km
New Line.196482601$J889-1P phases=1 Bus1=196482604.3 Bus2=196482515.3 LineCode=1/0_JCN_1PH_12KV_1 Length=0.001091 units=km
New Line.201183190$P5719092-1 phases=1 Bus1=201183193.1 Bus2=201182959.1 LineCode=1/0_JCN_1PH_12KV_1 Length=0.00194 units=km
New Line.P5739354-1$213918621 phases=1 Bus1=211074968.2 Bus2=213918624.2 LineCode=1/0_JCN_1PH_12KV_1 Length=0.004292 units=km
New Line.GS2859-3$GS2831-6 phases=3 Bus1=238424430.1.2.3 Bus2=234237988.1.2.3 LineCode=1000_JCN_3PH_12KV_3 Length=0.407327 units=km
New Line.ND237381002$ND235541166 phases=2 Bus1=237381002.2.3 Bus2=235541166.2.3 LineCode=1/0_JCN_2PH_12KV_2 Length=0.204645 units=km
New Line.ND237381002$237381096 phases=1 Bus1=237381002.1 Bus2=237381099.1 LineCode=1/0_JCN_1PH_12KV_1 Length=0.012732 units=km
New Line.ND237381002$239683824 phases=1 Bus1=237381002.1 Bus2=239683827.1 LineCode=1/0_JCN_1PH_12KV_1 Length=0.01062 units=km
New Line.90915237$P5552831-2 phases=1 Bus1=90915240.1 Bus2=90914133.1 LineCode=2_CLP_1PH_12KV_1 Length=0.005178 units=km
New Line.90915127$P5552827-1 phases=1 Bus1=90915130.2 Bus2=90914458.2 LineCode=2_CLP_1PH_12KV_1 Length=0.004466 units=km
New Line.90914948$P5552822-2 phases=1 Bus1=90913778.3 Bus2=90914951.3 LineCode=2_CLP_1PH_12KV_1 Length=0.00636 units=km
New Line.90915435$P5552838-1 phases=1 Bus1=90913359.2 Bus2=90915438.2 LineCode=2_CLP_1PH_12KV_1 Length=0.002253 units=km
New Line.95252296$240140171 phases=1 Bus1=240140173.2 Bus2=95252298.2 LineCode=2_CLP_1PH_12KV_1 Length=0.244855 units=km
New Line.96130033$96130141 phases=1 Bus1=96130035.1 Bus2=96130143.1 LineCode=2_CLP_1PH_12KV_1 Length=0.061321 units=km
New Line.ND150074516$240140130 phases=1 Bus1=240140132.1 Bus2=150074516.1 LineCode=2_CLP_1PH_12KV_1 Length=0.169946 units=km
New Line.188497631$188497656 phases=1 Bus1=188497633.1 Bus2=188497658.1 LineCode=1/0_JCN_1PH_12KV_1 Length=0.062426 units=km
New Line.ND192319722$ND192319701 phases=3 Bus1=192319722.1.2.3 Bus2=192319701.1.2.3 LineCode=1/0_JCN_3PH_12KV_3 Length=0.008425 units=km
New Line.ND192319722$192320237 phases=1 Bus1=192319722.2 Bus2=192320239.2 LineCode=1/0_JCN_1PH_12KV_1 Length=0.285746 units=km
New Line.196117045$P5726584-2 phases=1 Bus1=196117048.1 Bus2=196116362.1 LineCode=1/0_JCN_1PH_12KV_1 Length=0.001806 units=km
New Line.198848984$198848934 phases=1 Bus1=198848986.3 Bus2=198848936.3 LineCode=1/0_JCN_1PH_12KV_1 Length=0.064575 units=km
New Line.199559672$P5709089-1 phases=1 Bus1=199559675.1 Bus2=199559441.1 LineCode=1/0_JCN_1PH_12KV_1 Length=0.002089 units=km
New Line.196117250$ND200934406 phases=3 Bus1=196117253.1.2.3 Bus2=200934406.1.2.3 LineCode=1/0_JCN_3PH_12KV_3 Length=0.004668 units=km
New Line.201183065$P5719090-2 phases=1 Bus1=201183068.1 Bus2=201182832.1 LineCode=1/0_JCN_1PH_12KV_1 Length=0.001216 units=km
New Line.ND192319722$208839369 phases=1 Bus1=192319722.3 Bus2=208839371.3 LineCode=1/0_JCN_1PH_12KV_1 Length=0.098762 units=km
New Line.211075711$211075686 phases=1 Bus1=211075713.3 Bus2=211075688.3 LineCode=1/0_JCN_1PH_12KV_1 Length=0.030306 units=km
New Line.211075736$211075761 phases=1 Bus1=211075738.3 Bus2=211075763.3 LineCode=1/0_JCN_1PH_12KV_1 Length=0.068787 units=km
New Line.P5739344-2$213788049 phases=1 Bus1=213787533.1 Bus2=213788052.1 LineCode=1/0_JCN_1PH_12KV_1 Length=0.001456 units=km
New Line.P5758085-1$ND235541166 phases=1 Bus1=235541166.3 Bus2=235541247.3 LineCode=1/0_JCN_1PH_12KV_1 Length=0.084214 units=km
New Line.238425343$PME2858-4 phases=3 Bus1=238425346.1.2.3 Bus2=238424516.1.2.3 LineCode=1/0_JCN_3PH_12KV_3 Length=0.002947 units=km
New Line.ND238884608$ND235541166 phases=1 Bus1=235541166.2 Bus2=238884608.2 LineCode=1/0_JCN_1PH_12KV_1 Length=0.054697 units=km
New Line.239684795$ND235541166 phases=1 Bus1=235541166.3 Bus2=239684797.3 LineCode=1/0_JCN_1PH_12KV_1 Length=0.271327 units=km
New Line.94336734$94336724 phases=1 Bus1=94336736.2 Bus2=94336726.2 LineCode=2_CLP_1PH_12KV_1 Length=0.112441 units=km
New Line.94557036$P5549849-2 phases=1 Bus1=94556977.3 Bus2=94557039.3 LineCode=2_CLP_1PH_12KV_1 Length=0.002173 units=km
New Line.94557508$94557498 phases=1 Bus1=94557510.1 Bus2=94557500.1 LineCode=2_CLP_1PH_12KV_1 Length=0.144197 units=km
New Line.95737463$P5572584-2 phases=1 Bus1=95737466.2 Bus2=95737409.2 LineCode=2_CLP_1PH_12KV_1 Length=0.005549 units=km
New Line.ND150074516$ND147888928 phases=1 Bus1=150074516.1 Bus2=147888928.1 LineCode=2_CLP_1PH_12KV_1 Length=0.009157 units=km
New Line.ND192319701$P5652932-2 phases=1 Bus1=192319701.1 Bus2=188497105.1 LineCode=1/0_JCN_1PH_12KV_1 Length=0.135862 units=km
New Line.ND192319701$188497684 phases=1 Bus1=192319701.1 Bus2=188497686.1 LineCode=1/0_JCN_1PH_12KV_1 Length=0.081677 units=km
New Line.ND200934406$ND196116301 phases=2 Bus1=200934406.1.2 Bus2=196116301.1.2 LineCode=1/0_JCN_2PH_12KV_2 Length=0.007081 units=km
New Line.ND200934406$200935263 phases=1 Bus1=200934406.3 Bus2=200935266.3 LineCode=1/0_JCN_1PH_12KV_1 Length=0.005863 units=km
New Line.213918621$213918596 phases=1 Bus1=213918623.2 Bus2=213918598.2 LineCode=1/0_JCN_1PH_12KV_1 Length=0.046901 units=km
New Line.P5758087-2$ND238884608 phases=1 Bus1=238884608.2 Bus2=235541324.2 LineCode=1/0_JCN_1PH_12KV_1 Length=0.155591 units=km
New Line.237381096$237381042 phases=1 Bus1=237381098.1 Bus2=237381044.1 LineCode=1/0_JCN_1PH_12KV_1 Length=0.032921 units=km
New Line.238884854$ND238884608 phases=1 Bus1=238884608.2 Bus2=238884856.2 LineCode=1/0_JCN_1PH_12KV_1 Length=0.326534 units=km
New Line.239683824$239684247 phases=1 Bus1=239683826.1 Bus2=239684249.1 LineCode=1/0_JCN_1PH_12KV_1 Length=0.113908 units=km
New Line.J146-2P$243969050 phases=2 Bus1=243968070.1.2 Bus2=243969053.1.2 LineCode=1/0_JCN_2PH_12KV_2 Length=0.00078 units=km
New Line.90914948$90914980 phases=1 Bus1=90914946.3 Bus2=90914978.3 LineCode=2_CLP_1PH_12KV_1 Length=0.148343 units=km
New Line.90915435$90915457 phases=1 Bus1=90915433.2 Bus2=90915455.2 LineCode=2_CLP_1PH_12KV_1 Length=0.129791 units=km
New Line.95252296$P5572521-1 phases=1 Bus1=95252299.2 Bus2=95252229.2 LineCode=2_CLP_1PH_12KV_1 Length=0.003645 units=km
New Line.95253379$ND150074516 phases=1 Bus1=150074516.1 Bus2=95253381.1 LineCode=2_CLP_1PH_12KV_1 Length=0.034349 units=km
New Line.96130141$P5572575-2 phases=1 Bus1=96130144.1 Bus2=96130087.1 LineCode=2_CLP_1PH_12KV_1 Length=0.002845 units=km
New Line.188497656$P5652931-2 phases=1 Bus1=188497659.1 Bus2=188497173.1 LineCode=1/0_JCN_1PH_12KV_1 Length=0.001274 units=km
New Line.192320237$P5652942-1 phases=1 Bus1=192320240.2 Bus2=192319876.2 LineCode=1/0_JCN_1PH_12KV_1 Length=0.077225 units=km
New Line.ND196116301$196117181 phases=1 Bus1=196116301.2 Bus2=196117184.2 LineCode=1/0_JCN_1PH_12KV_1 Length=0.006603 units=km
New Line.ND196116301$196117211 phases=1 Bus1=196116301.1 Bus2=196117214.1 LineCode=1/0_JCN_1PH_12KV_1 Length=0.007477 units=km
New Line.198848934$ND198848636 phases=1 Bus1=198848937.3 Bus2=198848636.3 LineCode=1/0_JCN_1PH_12KV_1 Length=0.009796 units=km
New Line.208839369$ND208839360 phases=1 Bus1=208839372.3 Bus2=208839360.3 LineCode=1/0_JCN_1PH_12KV_1 Length=0.003859 units=km
New Line.211075686$P5739292-1 phases=1 Bus1=211075689.3 Bus2=211075385.3 LineCode=1/0_JCN_1PH_12KV_1 Length=0.002664 units=km
New Line.211075761$P5739294-2 phases=1 Bus1=211075764.3 Bus2=211075575.3 LineCode=1/0_JCN_1PH_12KV_1 Length=0.003596 units=km
New Line.213788049$213787972 phases=1 Bus1=213788051.1 Bus2=213787974.1 LineCode=1/0_JCN_1PH_12KV_1 Length=0.041561 units=km
New Line.P5772579-2$239684795 phases=1 Bus1=239684798.3 Bus2=239684649.3 LineCode=1/0_JCN_1PH_12KV_1 Length=0.000872 units=km
New Line.J146-1P$243969128 phases=2 Bus1=243968054.1.2 Bus2=243969131.1.2 LineCode=1/0_JCN_2PH_12KV_2 Length=0.000821 units=km
New Line.90915259$P5552831-1 phases=1 Bus1=90914124.1 Bus2=90915262.1 LineCode=2_CLP_1PH_12KV_1 Length=0.005786 units=km
New Line.94336240$94557036 phases=1 Bus1=94557038.3 Bus2=94336242.3 LineCode=2_CLP_1PH_12KV_1 Length=0.126299 units=km
New Line.94336724$P5563271-1 phases=1 Bus1=94336727.2 Bus2=94336481.2 LineCode=2_CLP_1PH_12KV_1 Length=0.002795 units=km
New Line.94557498$P5572890-1 phases=1 Bus1=94557501.1 Bus2=94557823.1 LineCode=2_CLP_1PH_12KV_1 Length=0.003468 units=km
New Line.95252449$ND147888928 phases=1 Bus1=147888928.1 Bus2=95252451.1 LineCode=2_CLP_1PH_12KV_1 Length=0.149582 units=km
New Line.188497684$P5652934-1 phases=1 Bus1=188497687.1 Bus2=188497028.1 LineCode=1/0_JCN_1PH_12KV_1 Length=0.002676 units=km
New Line.J889-2P$196482670 phases=1 Bus1=196482531.3 Bus2=196482673.3 LineCode=1/0_JCN_1PH_12KV_1 Length=0.000979 units=km
New Line.ND198848636$198848884 phases=1 Bus1=198848636.3 Bus2=198848887.3 LineCode=1/0_JCN_1PH_12KV_1 Length=0.0077 units=km
New Line.198848909$ND198848636 phases=1 Bus1=198848636.3 Bus2=198848912.3 LineCode=1/0_JCN_1PH_12KV_1 Length=0.017268 units=km
New Line.200935263$ND201325901 phases=1 Bus1=200935265.3 Bus2=201325901.3 LineCode=1/0_JCN_1PH_12KV_1 Length=0.292784 units=km
New Line.ND208839360$P5705110-2 phases=1 Bus1=208839360.3 Bus2=208839123.3 LineCode=1/0_JCN_1PH_12KV_1 Length=0.001863 units=km
New Line.ND208839360$208839396 phases=1 Bus1=208839360.3 Bus2=208839399.3 LineCode=1/0_JCN_1PH_12KV_1 Length=0.002728 units=km
New Line.213918596$P5739355-1 phases=1 Bus1=213918599.2 Bus2=211075036.2 LineCode=1/0_JCN_1PH_12KV_1 Length=0.002795 units=km
New Line.GS2831-5$J150-1P phases=3 Bus1=234237979.1.2.3 Bus2=234238303.1.2.3 LineCode=1/0_JCN_3PH_12KV_3 Length=0.085107 units=km
New Line.234238610$243969050 phases=2 Bus1=243969052.1.2 Bus2=234238612.1.2 LineCode=1/0_JCN_2PH_12KV_2 Length=0.059019 units=km
New Line.237381042$P5758081-1 phases=1 Bus1=237381045.1 Bus2=237380937.1 LineCode=1/0_JCN_1PH_12KV_1 Length=0.00118 units=km
New Line.PME2858-2$238425293 phases=1 Bus1=238424526.2 Bus2=238425296.2 LineCode=1/0_JCN_1PH_12KV_1 Length=0.002327 units=km
New Line.238884854$P5758093-1 phases=1 Bus1=238884857.2 Bus2=238884523.2 LineCode=1/0_JCN_1PH_12KV_1 Length=0.000872 units=km
New Line.239684247$P5772576-1 phases=1 Bus1=239684250.1 Bus2=239683962.1 LineCode=1/0_JCN_1PH_12KV_1 Length=0.000538 units=km
New Line.P5758085-2$239684449 phases=1 Bus1=235541256.3 Bus2=239684451.3 LineCode=1/0_JCN_1PH_12KV_1 Length=0.167235 units=km
New Line.90915457$P5552839-2 phases=1 Bus1=90915460.2 Bus2=90913300.2 LineCode=2_CLP_1PH_12KV_1 Length=0.004164 units=km
New Line.90914980$P5552823-1 phases=1 Bus1=90914983.3 Bus2=90913701.3 LineCode=2_CLP_1PH_12KV_1 Length=0.002318 units=km
New Line.95253379$P5572514-2 phases=1 Bus1=95253382.1 Bus2=95253272.1 LineCode=2_CLP_1PH_12KV_1 Length=0.004225 units=km
New Line.196116823$196117211 phases=1 Bus1=196117213.1 Bus2=196116825.1 LineCode=1/0_JCN_1PH_12KV_1 Length=0.107418 units=km
New Line.196117181$196116904 phases=1 Bus1=196117183.2 Bus2=196116906.2 LineCode=1/0_JCN_1PH_12KV_1 Length=0.010355 units=km
New Line.J889-3P$196482702 phases=1 Bus1=196482523.3 Bus2=196482705.3 LineCode=1/0_JCN_1PH_12KV_1 Length=0.001073 units=km
New Line.ND201325901$200935176 phases=1 Bus1=201325901.3 Bus2=200935178.3 LineCode=1/0_JCN_1PH_12KV_1 Length=0.408358 units=km
New Line.213787972$P5739345-1 phases=1 Bus1=213787975.1 Bus2=213787456.1 LineCode=1/0_JCN_1PH_12KV_1 Length=0.002332 units=km
New Line.GS2831-4$PME2845-1 phases=3 Bus1=234237970.1.2.3 Bus2=236887146.1.2.3 LineCode=350_JCN_3PH_12KV_3 Length=0.159823 units=km
New Line.P5758087-1$P5758088-2 phases=1 Bus1=235541315.2 Bus2=237462472.2 LineCode=1/0_JCN_1PH_12KV_1 Length=0.089083 units=km
New Line.PME2858-1$238425268 phases=1 Bus1=238424544.3 Bus2=238425271.3 LineCode=1/0_JCN_1PH_12KV_1 Length=0.002099 units=km
New Line.PME2858-3$238425318 phases=1 Bus1=238424535.1 Bus2=238425321.1 LineCode=1/0_JCN_1PH_12KV_1 Length=0.002859 units=km
New Line.243969128$243968324 phases=2 Bus1=243969130.1.2 Bus2=243968326.1.2 LineCode=1/0_JCN_2PH_12KV_2 Length=0.114873 units=km
New Line.94336240$P5549851-2 phases=1 Bus1=94336243.3 Bus2=94336186.3 LineCode=2_CLP_1PH_12KV_1 Length=0.001589 units=km
New Line.P5572521-2$95252308 phases=1 Bus1=95252238.2 Bus2=95252311.2 LineCode=2_CLP_1PH_12KV_1 Length=0.004794 units=km
New Line.95252449$P5572516-2 phases=1 Bus1=95252452.1 Bus2=95252395.1 LineCode=2_CLP_1PH_12KV_1 Length=0.002161 units=km
New Line.P5572575-1$96130151 phases=1 Bus1=96130078.1 Bus2=96130154.1 LineCode=2_CLP_1PH_12KV_1 Length=0.003426 units=km
New Line.90915259$ND96727170 phases=1 Bus1=90915257.1 Bus2=96727170.1 LineCode=2_CLP_1PH_12KV_1 Length=0.112993 units=km
New Line.P5652942-2$192320264 phases=1 Bus1=192319885.2 Bus2=192320267.2 LineCode=1/0_JCN_1PH_12KV_1 Length=0.004528 units=km
New Line.196482670$196483097 phases=1 Bus1=196482672.3 Bus2=196483099.3 LineCode=1/0_JCN_1PH_12KV_1 Length=0.051485 units=km
New Line.198848884$198848834 phases=1 Bus1=198848886.3 Bus2=198848836.3 LineCode=1/0_JCN_1PH_12KV_1 Length=0.011452 units=km
New Line.198848909$198848959 phases=1 Bus1=198848911.3 Bus2=198848961.3 LineCode=1/0_JCN_1PH_12KV_1 Length=0.144376 units=km
New Line.208839396$208839446 phases=1 Bus1=208839398.3 Bus2=208839448.3 LineCode=1/0_JCN_1PH_12KV_1 Length=0.101925 units=km
New Line.P5739292-2$211075661 phases=1 Bus1=211075394.3 Bus2=211075664.3 LineCode=1/0_JCN_1PH_12KV_1 Length=0.003557 units=km
New Line.234238610$P5753147-2 phases=2 Bus1=234238613.1.2 Bus2=234238552.1.2 LineCode=1/0_JCN_2PH_12KV_2 Length=0.001202 units=km
New Line.238425293$238425218 phases=1 Bus1=238425295.2 Bus2=238425220.2 LineCode=1/0_JCN_1PH_12KV_1 Length=0.041166 units=km
New Line.239684449$P5772577-A phases=1 Bus1=239684452.3 Bus2=239684347.3 LineCode=1/0_JCN_1PH_12KV_1 Length=0.001225 units=km
New Line.239684768$P5772579-1 phases=1 Bus1=239684640.3 Bus2=239684771.3 LineCode=1/0_JCN_1PH_12KV_1 Length=0.000674 units=km
New Line.PME2973-2$GS2831-3 phases=3 Bus1=234237961.1.2.3 Bus2=241326284.1.2.3 LineCode=1000_JCN_3PH_12KV_3 Length=0.643748 units=km
New Line.90915281$ND96727170 phases=1 Bus1=96727170.1 Bus2=90915279.1 LineCode=2_CLP_1PH_12KV_1 Length=0.077242 units=km
New Line.ND96727170$90915303 phases=1 Bus1=96727170.1 Bus2=90915301.1 LineCode=2_CLP_1PH_12KV_1 Length=0.097108 units=km
New Line.94336714$P5563271-2 phases=1 Bus1=94336490.2 Bus2=94336717.2 LineCode=2_CLP_1PH_12KV_1 Length=0.001715 units=km
New Line.94557488$P5572890-2 phases=1 Bus1=94557832.1 Bus2=94557491.1 LineCode=2_CLP_1PH_12KV_1 Length=0.00537 units=km
New Line.P5652934-2$188497823 phases=1 Bus1=188497037.1 Bus2=188497826.1 LineCode=1/0_JCN_1PH_12KV_1 Length=0.002649 units=km
New Line.196116823$P5726586-1 phases=1 Bus1=196116826.1 Bus2=196116443.1 LineCode=1/0_JCN_1PH_12KV_1 Length=0.001193 units=km
New Line.196116904$P5726587-2 phases=1 Bus1=196116907.2 Bus2=196116600.2 LineCode=1/0_JCN_1PH_12KV_1 Length=0.001768 units=km
New Line.196482702$196483072 phases=1 Bus1=196482704.3 Bus2=196483074.3 LineCode=1/0_JCN_1PH_12KV_1 Length=0.069676 units=km
New Line.200935176$ND200934478 phases=1 Bus1=200935179.3 Bus2=200934478.3 LineCode=1/0_JCN_1PH_12KV_1 Length=0.008857 units=km
New Line.208839421$P5705110-1 phases=1 Bus1=208839114.3 Bus2=208839424.3 LineCode=1/0_JCN_1PH_12KV_1 Length=0.002922 units=km
New Line.P5739355-2$213918571 phases=1 Bus1=211075045.2 Bus2=213918574.2 LineCode=1/0_JCN_1PH_12KV_1 Length=0.001236 units=km
New Line.P5758081-2$P5758082-2 phases=1 Bus1=237380946.1 Bus2=235541090.1 LineCode=1/0_JCN_1PH_12KV_1 Length=0.111286 units=km
New Line.238425318$238425193 phases=1 Bus1=238425320.1 Bus2=238425195.1 LineCode=1/0_JCN_1PH_12KV_1 Length=0.049546 units=km
New Line.238425268$238425243 phases=1 Bus1=238425270.3 Bus2=238425245.3 LineCode=1/0_JCN_1PH_12KV_1 Length=0.031762 units=km
New Line.238884750$P5758093-2 phases=1 Bus1=238884532.2 Bus2=238884753.2 LineCode=1/0_JCN_1PH_12KV_1 Length=0.000846 units=km
New Line.P5772576-2$239684220 phases=1 Bus1=239683971.1 Bus2=239684223.1 LineCode=1/0_JCN_1PH_12KV_1 Length=0.000537 units=km
New Line.243968324$ND243968170 phases=2 Bus1=243968327.1.2 Bus2=243968170.1.2 LineCode=1/0_JCN_2PH_12KV_2 Length=0.007358 units=km
New Line.95252308$95252928 phases=1 Bus1=95252310.2 Bus2=95252930.2 LineCode=2_CLP_1PH_12KV_1 Length=0.17755 units=km
New Line.96130151$96130251 phases=1 Bus1=96130153.1 Bus2=96130253.1 LineCode=2_CLP_1PH_12KV_1 Length=0.111023 units=km
New Line.192320264$192320291 phases=1 Bus1=192320266.2 Bus2=192320293.2 LineCode=1/0_JCN_1PH_12KV_1 Length=0.034049 units=km
New Line.196483097$P5718890-2 phases=1 Bus1=196483100.3 Bus2=196482955.3 LineCode=1/0_JCN_1PH_12KV_1 Length=0.001601 units=km
New Line.P5718897-1$198848959 phases=1 Bus1=198848962.3 Bus2=198848232.3 LineCode=1/0_JCN_1PH_12KV_1 Length=0.003665 units=km
New Line.198848834$P5718898-2 phases=1 Bus1=198848837.3 Bus2=198848513.3 LineCode=1/0_JCN_1PH_12KV_1 Length=0.048579 units=km
New Line.ND200934478$200935203 phases=1 Bus1=200934478.3 Bus2=200935206.3 LineCode=1/0_JCN_1PH_12KV_1 Length=0.008869 units=km
New Line.200935228$ND200934478 phases=1 Bus1=200934478.3 Bus2=200935231.3 LineCode=1/0_JCN_1PH_12KV_1 Length=0.010643 units=km
New Line.208839446$P5705111-1 phases=1 Bus1=208839449.3 Bus2=208839046.3 LineCode=1/0_JCN_1PH_12KV_1 Length=0.00258 units=km
New Line.211075661$211075636 phases=1 Bus1=211075663.3 Bus2=211075638.3 LineCode=1/0_JCN_1PH_12KV_1 Length=0.033642 units=km
New Line.P5739345-2$213787999 phases=1 Bus1=213787465.1 Bus2=213788002.1 LineCode=1/0_JCN_1PH_12KV_1 Length=0.002397 units=km
New Line.236887617$PME2845-4 phases=3 Bus1=236887128.1.2.3 Bus2=236887620.1.2.3 LineCode=1/0_JCN_3PH_12KV_3 Length=0.002175 units=km
New Line.J150-2P$237381184 phases=3 Bus1=234238319.1.2.3 Bus2=237381186.1.2.3 LineCode=1/0_JCN_3PH_12KV_3 Length=0.07262 units=km
New Line.238425218$238425043 phases=1 Bus1=238425221.2 Bus2=238425046.2 LineCode=1/0_JCN_1PH_12KV_1 Length=0.012606 units=km
New Line.P5758088-1$238884998 phases=1 Bus1=237462463.2 Bus2=238885000.2 LineCode=1/0_JCN_1PH_12KV_1 Length=0.238719 units=km
New Line.239684714$239684768 phases=1 Bus1=239684770.3 Bus2=239684716.3 LineCode=1/0_JCN_1PH_12KV_1 Length=0.052043 units=km
New Line.ND243968300$ND243968170 phases=1 Bus1=243968170.1 Bus2=243968300.1 LineCode=1/0_JCN_1PH_12KV_1 Length=0.00654 units=km
New Line.ND243968170$243968425 phases=1 Bus1=243968170.2 Bus2=243968427.2 LineCode=1/0_JCN_1PH_12KV_1 Length=0.010733 units=km
New Line.90915281$P5552834-1 phases=1 Bus1=90915284.1 Bus2=90914192.1 LineCode=2_CLP_1PH_12KV_1 Length=0.003289 units=km
New Line.90915303$P5552833-2 phases=1 Bus1=90915306.1 Bus2=90914269.1 LineCode=2_CLP_1PH_12KV_1 Length=0.002388 units=km
New Line.94336714$94336704 phases=1 Bus1=94336716.2 Bus2=94336706.2 LineCode=2_CLP_1PH_12KV_1 Length=0.123734 units=km
New Line.94557488$94557468 phases=1 Bus1=94557490.1 Bus2=94557470.1 LineCode=2_CLP_1PH_12KV_1 Length=0.100372 units=km
New Line.P5572516-1$95252459 phases=1 Bus1=95252386.1 Bus2=95252462.1 LineCode=2_CLP_1PH_12KV_1 Length=0.002219 units=km
New Line.188497823$188497850 phases=1 Bus1=188497825.1 Bus2=188497852.1 LineCode=1/0_JCN_1PH_12KV_1 Length=0.065669 units=km
New Line.196483072$P5718891-2 phases=1 Bus1=196483075.3 Bus2=196482807.3 LineCode=1/0_JCN_1PH_12KV_1 Length=0.00133 units=km
New Line.208839546$208839421 phases=1 Bus1=208839423.3 Bus2=208839548.3 LineCode=1/0_JCN_1PH_12KV_1 Length=0.13801 units=km
New Line.213918571$213918546 phases=1 Bus1=213918573.2 Bus2=213918548.2 LineCode=1/0_JCN_1PH_12KV_1 Length=0.061778 units=km
New Line.J150-3P$234238510 phases=2 Bus1=234238311.2.3 Bus2=234238512.2.3 LineCode=1/0_JCN_2PH_12KV_2 Length=0.093431 units=km
New Line.236887590$PME2845-3 phases=3 Bus1=236887119.1.2.3 Bus2=236887593.1.2.3 LineCode=1/0_JCN_3PH_12KV_3 Length=0.001819 units=km
New Line.238425193$ND238424891 phases=1 Bus1=238425196.1 Bus2=238424891.1 LineCode=1/0_JCN_1PH_12KV_1 Length=0.006548 units=km
New Line.238425243$238425068 phases=1 Bus1=238425246.3 Bus2=238425071.3 LineCode=1/0_JCN_1PH_12KV_1 Length=0.012487 units=km
New Line.238884750$238884881 phases=1 Bus1=238884752.2 Bus2=238884883.2 LineCode=1/0_JCN_1PH_12KV_1 Length=0.078916 units=km
New Line.239684220$239684130 phases=1 Bus1=239684222.1 Bus2=239684132.1 LineCode=1/0_JCN_1PH_12KV_1 Length=0.106251 units=km
New Line.P5772577-B$239684422 phases=1 Bus1=239684339.3 Bus2=239684425.3 LineCode=1/0_JCN_1PH_12KV_1 Length=0.001174 units=km
New Line.PME2973-3$241440083 phases=2 Bus1=241326266.2.3 Bus2=241440086.2.3 LineCode=1/0_JCN_2PH_12KV_2 Length=0.001603 units=km
New Line.242552537$ND243968300 phases=1 Bus1=243968300.1 Bus2=242552540.1 LineCode=1/0_JCN_1PH_12KV_1 Length=0.004227 units=km
New Line.ND243968300$243968351 phases=1 Bus1=243968300.1 Bus2=243968354.1 LineCode=1/0_JCN_1PH_12KV_1 Length=0.00597 units=km
New Line.ND243968300$243968383 phases=1 Bus1=243968300.1 Bus2=243968386.1 LineCode=1/0_JCN_1PH_12KV_1 Length=0.007281 units=km
New Line.95252928$P5572523-1 phases=1 Bus1=95252931.2 Bus2=95252865.2 LineCode=2_CLP_1PH_12KV_1 Length=0.004423 units=km
New Line.96130251$P5572576-2 phases=1 Bus1=96130254.1 Bus2=96130197.1 LineCode=2_CLP_1PH_12KV_1 Length=0.004129 units=km
New Line.192320291$P5652943-1 phases=1 Bus1=192320294.2 Bus2=192319808.2 LineCode=1/0_JCN_1PH_12KV_1 Length=0.003584 units=km
New Line.P5726587-1$196116860 phases=1 Bus1=196116591.2 Bus2=196116863.2 LineCode=1/0_JCN_1PH_12KV_1 Length=0.002742 units=km
New Line.200935126$200935228 phases=1 Bus1=200935230.3 Bus2=200935128.3 LineCode=1/0_JCN_1PH_12KV_1 Length=0.068789 units=km
New Line.200935203$200935151 phases=1 Bus1=200935205.3 Bus2=200935153.3 LineCode=1/0_JCN_1PH_12KV_1 Length=0.12467 units=km
New Line.211075636$P5739291-1 phases=1 Bus1=211075639.3 Bus2=211075453.3 LineCode=1/0_JCN_1PH_12KV_1 Length=0.001871 units=km
New Line.213787999$213787935 phases=1 Bus1=213788001.1 Bus2=213787937.1 LineCode=1/0_JCN_1PH_12KV_1 Length=0.092937 units=km
New Line.236887617$236887742 phases=3 Bus1=236887619.1.2.3 Bus2=236887744.1.2.3 LineCode=1/0_JCN_3PH_12KV_3 Length=0.156814 units=km
New Line.P5753340-1$237381184 phases=3 Bus1=237381187.1.2.3 Bus2=237381137.1.2.3 LineCode=1/0_JCN_3PH_12KV_3 Length=0.00195 units=km
New Line.ND238424891$238424968 phases=1 Bus1=238424891.1 Bus2=238424971.1 LineCode=1/0_JCN_1PH_12KV_1 Length=0.009427 units=km
New Line.ND238424891$238425018 phases=1 Bus1=238424891.1 Bus2=238425021.1 LineCode=1/0_JCN_1PH_12KV_1 Length=0.005774 units=km
New Line.238425168$238425043 phases=1 Bus1=238425045.2 Bus2=238425170.2 LineCode=1/0_JCN_1PH_12KV_1 Length=0.081149 units=km
New Line.238939785$P5758082-1 phases=1 Bus1=235541081.1 Bus2=238939787.1 LineCode=1/0_JCN_1PH_12KV_1 Length=0.261224 units=km
New Line.238884998$P5758091-B phases=1 Bus1=238885001.2 Bus2=239683693.2 LineCode=1/0_JCN_1PH_12KV_1 Length=0.001606 units=km
New Line.P5772578-2$239684714 phases=1 Bus1=239684717.3 Bus2=239684569.3 LineCode=1/0_JCN_1PH_12KV_1 Length=0.000601 units=km
New Line.PME2974-1$PME2973-1 phases=3 Bus1=241326293.1.2.3 Bus2=241326440.1.2.3 LineCode=1000_JCN_3PH_12KV_3 Length=0.13455 units=km
New Line.243968425$P5777179-1 phases=1 Bus1=243968428.2 Bus2=243968213.2 LineCode=1/0_JCN_1PH_12KV_1 Length=0.000127 units=km
New Line.94336704$P5563272-1 phases=1 Bus1=94336707.2 Bus2=94336550.2 LineCode=2_CLP_1PH_12KV_1 Length=0.004089 units=km
New Line.94557468$P5572892-1 phases=1 Bus1=94557471.1 Bus2=94557678.1 LineCode=2_CLP_1PH_12KV_1 Length=0.002271 units=km
New Line.95252459$P5572517-2 phases=1 Bus1=95252461.1 Bus2=95252515.1 LineCode=2_CLP_1PH_12KV_1 Length=0.13708 units=km
New Line.188497850$P5652935-1 phases=1 Bus1=188497853.1 Bus2=188496960.1 LineCode=1/0_JCN_1PH_12KV_1 Length=0.001166 units=km