! OpenDSS script generated from multiconductor network
Clear

New Circuit.mc_network basekv=12.0 pu=1.000000 angle=0.00 frequency=60.0 phases=3 Mvasc3=143993 Mvasc1=47997.6
~ bus1=-8888882154252.1.2.3

! Line codes
New LineCode.1000_JCN_3PH_12KV_3 nphases=3 units=km Rmatrix=[ 0.026002 | 0 0.026002 | 0 0 0.026002 ] Xmatrix=[ 0.03936 | 0 0.03936 | 0 0 0.03936 ] Cmatrix=[ 0 | 0 0 | 0 0 0 ]
New LineCode.2_CLP_1PH_12KV_1 nphases=1 units=km Rmatrix=[ 0.040388 ] Xmatrix=[ 0.008513 ] Cmatrix=[ 0 ]
New LineCode.1/0_JCN_1PH_12KV_1 nphases=1 units=km Rmatrix=[ 0.029534 ] Xmatrix=[ 0.009027 ] Cmatrix=[ 0 ]
New LineCode.2_CLP_3PH_12KV_3 nphases=3 units=km Rmatrix=[ 0.09595 | 0 0.09595 | 0 0 0.09595 ] Xmatrix=[ 0.020225 | 0 0.020225 | 0 0 0.020225 ] Cmatrix=[ 0 | 0 0 | 0 0 0 ]
New LineCode.1/0_CLP_1PH_12KV_1 nphases=1 units=km Rmatrix=[ 0.001353 ] Xmatrix=[ 0.000414 ] Cmatrix=[ 0 ]
New LineCode.1/0_CLP_3PH_12KV_3 nphases=3 units=km Rmatrix=[ 0.017276 | 0 0.017276 | 0 0 0.017276 ] Xmatrix=[ 0.00528 | 0 0.00528 | 0 0 0.00528 ] Cmatrix=[ 0 | 0 0 | 0 0 0 ]
New LineCode.2_CLP_2PH_12KV_2 nphases=2 units=km Rmatrix=[ 0.191314 | 0 0.191314 ] Xmatrix=[ 0.040325 | 0 0.040325 ] Cmatrix=[ 0 | 0 0 ]
New LineCode.1/0_JCN_2PH_12KV_2 nphases=2 units=km Rmatrix=[ 0.003072 | 0 0.003072 ] Xmatrix=[ 0.000939 | 0 0.000939 ] Cmatrix=[ 0 | 0 0 ]
New LineCode.2_AL_3PH_12KV_3 nphases=3 units=km Rmatrix=[ 0.115699 | 0 0.115699 | 0 0 0.115699 ] Xmatrix=[ 0.024387 | 0 0.024387 | 0 0 0.024387 ] Cmatrix=[ 0 | 0 0 | 0 0 0 ]
New LineCode.750_JCN_3PH_12KV_3 nphases=3 units=km Rmatrix=[ 0.058061 | 0 0.058061 | 0 0 0.058061 ] Xmatrix=[ 0.071307 | 0 0.071307 | 0 0 0.071307 ] Cmatrix=[ 0 | 0 0 | 0 0 0 ]
New LineCode.1/0_JCN_3PH_12KV_3 nphases=3 units=km Rmatrix=[ 0.040704 | 0 0.040704 | 0 0 0.040704 ] Xmatrix=[ 0.012441 | 0 0.012441 | 0 0 0.012441 ] Cmatrix=[ 0 | 0 0 | 0 0 0 ]
New LineCode.750_CLP_3PH_12KV_3 nphases=3 units=km Rmatrix=[ 0.003319 | 0 0.003319 | 0 0 0.003319 ] Xmatrix=[ 0.004076 | 0 0.004076 | 0 0 0.004076 ] Cmatrix=[ 0 | 0 0 | 0 0 0 ]
New LineCode.2_JCN_3PH_12KV_3 nphases=3 units=km Rmatrix=[ 0.339862 | 0 0.339862 | 0 0 0.339862 ] Xmatrix=[ 0.071636 | 0 0.071636 | 0 0 0.071636 ] Cmatrix=[ 0 | 0 0 | 0 0 0 ]
New LineCode.1/0_CLP_2PH_12KV_2 nphases=2 units=km Rmatrix=[ 0.135743 | 0 0.135743 ] Xmatrix=[ 0.041489 | 0 0.041489 ] Cmatrix=[ 0 | 0 0 ]
New LineCode.2_JCN_2PH_12KV_2 nphases=2 units=km Rmatrix=[ 0.149462 | 0 0.149462 ] Xmatrix=[ 0.031504 | 0 0.031504 ] Cmatrix=[ 0 | 0 0 ]
New LineCode.2_JCN_1PH_12KV_1 nphases=1 units=km Rmatrix=[ 0.003291 ] Xmatrix=[ 0.000694 ] Cmatrix=[ 0 ]
New LineCode.350_CLP_3PH_12KV_3 nphases=3 units=km Rmatrix=[ 0.08467 | 0 0.08467 | 0 0 0.08467 ] Xmatrix=[ 0.064332 | 0 0.064332 | 0 0 0.064332 ] Cmatrix=[ 0 | 0 0 | 0 0 0 ]
New LineCode.2_ACSR_3PH_12KV_3 nphases=3 units=km Rmatrix=[ 0.003691 | 0 0.003691 | 0 0 0.003691 ] Xmatrix=[ 0.001984 | 0 0.001984 | 0 0 0.001984 ] Cmatrix=[ 0 | 0 0 | 0 0 0 ]
New LineCode.350_AL_1PH_12KV_1 nphases=1 units=km Rmatrix=[ 0.016263 ] Xmatrix=[ 0.012356 ] Cmatrix=[ 0 ]
New LineCode.2_AL_2PH_12KV_2 nphases=2 units=km Rmatrix=[ 0.002036 | 0 0.002036 ] Xmatrix=[ 0.000429 | 0 0.000429 ] Cmatrix=[ 0 | 0 0 ]
New LineCode.350_AL_3PH_12KV_3 nphases=3 units=km Rmatrix=[ 0.000818 | 0 0.000818 | 0 0 0.000818 ] Xmatrix=[ 0.000622 | 0 0.000622 | 0 0 0.000622 ] Cmatrix=[ 0 | 0 0 | 0 0 0 ]
New LineCode.UNK_UNK_3PH_12KV_3 nphases=3 units=km Rmatrix=[ 0.005548 | 0 0.005548 | 0 0 0.005548 ] Xmatrix=[ 0.021538 | 0 0.021538 | 0 0 0.021538 ] Cmatrix=[ 0 | 0 0 | 0 0 0 ]
New LineCode.336_ACSR_3PH_336_ACSR_N_12KV_4 nphases=4 units=km Rmatrix=[ 0.013876 | 0 0.013876 | 0 0 0.013876 | 0 0 0 0.013876 ] Xmatrix=[ 0.031074 | 0 0.031074 | 0 0 0.031074 | 0 0 0 0.031074 ] Cmatrix=[ 0 | 0 0 | 0 0 0 | 0 0 0 0 ]
New LineCode.336_ACSR_3PH_12KV_3 nphases=3 units=km Rmatrix=[ 0.004788 | 0 0.004788 | 0 0 0.004788 ] Xmatrix=[ 0.010721 | 0 0.010721 | 0 0 0.010721 ] Cmatrix=[ 0 | 0 0 | 0 0 0 ]
New LineCode.336_ACSR_3PH_336_ACSR_N_12KV_3 nphases=3 units=km Rmatrix=[ 0.013876 | 0 0.013876 | 0 0 0.013876 ] Xmatrix=[ 0.031074 | 0 0.031074 | 0 0 0.031074 ] Cmatrix=[ 0 | 0 0 | 0 0 0 ]
New LineCode.4_ACSR_2PH_12KV_2 nphases=2 units=km Rmatrix=[ 0.124407 | 0 0.124407 ] Xmatrix=[ 0.04565 | 0 0.04565 ] Cmatrix=[ 0 | 0 0 ]
New LineCode.1/0_ACSR_2PH_12KV_2 nphases=2 units=km Rmatrix=[ 0.007682 | 0 0.007682 ] Xmatrix=[ 0.006116 | 0 0.006116 ] Cmatrix=[ 0 | 0 0 ]
New LineCode.336_ACSR_2PH_336_ACSR_N_12KV_3_N nphases=3 units=km Rmatrix=[ 0.00081 | 0 0.00081 | 0 0 0.00081 ] Xmatrix=[ 0.001616 | 0 0.001616 | 0 0 0.001616 ] Cmatrix=[ 0 | 0 0 | 0 0 0 ]
New LineCode.1/0_ACSR_3PH_1/0_ACSR_N_12KV_4 nphases=4 units=km Rmatrix=[ 0.000425 | 0 0.000425 | 0 0 0.000425 | 0 0 0 0.000425 ] Xmatrix=[ 0.000307 | 0 0.000307 | 0 0 0.000307 | 0 0 0 0.000307 ] Cmatrix=[ 0 | 0 0 | 0 0 0 | 0 0 0 0 ]
New LineCode.336_ATW_3PH_12KV_3 nphases=3 units=km Rmatrix=[ 1e-05 | 0 1e-05 | 0 0 1e-05 ] Xmatrix=[ 1e-05 | 0 1e-05 | 0 0 1e-05 ] Cmatrix=[ 0 | 0 0 | 0 0 0 ]
New LineCode.1/0_ATW_3PH_12KV_3 nphases=3 units=km Rmatrix=[ 1e-05 | 0 1e-05 | 0 0 1e-05 ] Xmatrix=[ 1e-05 | 0 1e-05 | 0 0 1e-05 ] Cmatrix=[ 0 | 0 0 | 0 0 0 ]
New LineCode.500_EPR_3PH_12KV_3 nphases=3 units=km Rmatrix=[ 1e-05 | 0 1e-05 | 0 0 1e-05 ] Xmatrix=[ 1e-05 | 0 1e-05 | 0 0 1e-05 ] Cmatrix=[ 0 | 0 0 | 0 0 0 ]
New LineCode.1/0_ATW_2PH_12KV_2 nphases=2 units=km Rmatrix=[ 1e-05 | 0 1e-05 ] Xmatrix=[ 1e-05 | 0 1e-05 ] Cmatrix=[ 0 | 0 0 ]
New LineCode.336_ATW_3PH_336_ATW_N_12KV_4 nphases=4 units=km Rmatrix=[ 1e-05 | 0 1e-05 | 0 0 1e-05 | 0 0 0 1e-05 ] Xmatrix=[ 1e-05 | 0 1e-05 | 0 0 1e-05 | 0 0 0 1e-05 ] Cmatrix=[ 0 | 0 0 | 0 0 0 | 0 0 0 0 ]
New LineCode.336_ATW_3PH_12KV_4 nphases=4 units=km Rmatrix=[ 1e-05 | 0 1e-05 | 0 0 1e-05 | 0 0 0 1e-05 ] Xmatrix=[ 1e-05 | 0 1e-05 | 0 0 1e-05 | 0 0 0 1e-05 ] Cmatrix=[ 0 | 0 0 | 0 0 0 | 0 0 0 0 ]
New LineCode.1/0_ATW_2PH_1/0_ATW_N_12KV_3_N nphases=3 units=km Rmatrix=[ 1e-05 | 0 1e-05 | 0 0 1e-05 ] Xmatrix=[ 1e-05 | 0 1e-05 | 0 0 1e-05 ] Cmatrix=[ 0 | 0 0 | 0 0 0 ]

! Lines
New Line.02876$ND233537795 phases=3 Bus1=-8888882154252.1.2.3 Bus2=233537795.1.2.3 LineCode=1000_JCN_3PH_12KV_3 Length=0.026096 units=km
New Line.ND148963406$ND148963395 phases=1 Bus1=148963406.2 Bus2=-777777148963406.2 LineCode=2_CLP_1PH_12KV_1 Length=0.043284 units=km
New Line.99082463$99082488 phases=1 Bus1=99082465.2 Bus2=99082490.2 LineCode=2_CLP_1PH_12KV_1 Length=0.035739 units=km
New Line.188533013$P5662391-2 phases=1 Bus1=188532678.2 Bus2=188533016.2 LineCode=1/0_JCN_1PH_12KV_1 Length=0.0011 units=km
New Line.ND218666591$BS3003-R phases=3 Bus1=38103143.1.2.3 Bus2=218666591.1.2.3 LineCode=2_CLP_3PH_12KV_3 Length=0.07046 units=km
New Line.B5187091-1$B5187092-1 phases=1 Bus1=38104787.3 Bus2=38104643.3 LineCode=1/0_CLP_1PH_12KV_1 Length=0.110633 units=km
New Line.M5187095$B5192832-2 phases=1 Bus1=38192884.1 Bus2=38104868.1 LineCode=1/0_CLP_1PH_12KV_1 Length=0.08795 units=km
New Line.BS2819-1$B5192830-2 phases=1 Bus1=38103872.1 Bus2=38117900.1 LineCode=1/0_CLP_1PH_12KV_1 Length=0.261373 units=km
New Line.B5187084-2$B5187085-2 phases=1 Bus1=38118479.3 Bus2=38118404.3 LineCode=1/0_CLP_1PH_12KV_1 Length=0.133538 units=km
New Line.B5187081-1$B5187082-1 phases=1 Bus1=38118542.1 Bus2=38118686.1 LineCode=1/0_CLP_1PH_12KV_1 Length=0.089713 units=km
New Line.B5187098-1$BS2820-1 phases=1 Bus1=38103822.3 Bus2=38118830.3 LineCode=1/0_CLP_1PH_12KV_1 Length=0.652176 units=km
New Line.BS3003-L$ND38194321 phases=3 Bus1=38103152.1.2.3 Bus2=38194321.1.2.3 LineCode=1/0_CLP_3PH_12KV_3 Length=0.381004 units=km
New Line.ND38194408$BS5415-1 phases=2 Bus1=138774401.1.3 Bus2=38194408.1.3 LineCode=2_CLP_2PH_12KV_2 Length=0.171043 units=km
New Line.P5537227-2$170577996 phases=1 Bus1=170577999.2 Bus2=84263305.2 LineCode=2_CLP_1PH_12KV_1 Length=0.003895 units=km
New Line.P5587315-2$98996436 phases=1 Bus1=98995136.1 Bus2=98996439.1 LineCode=2_CLP_1PH_12KV_1 Length=0.002606 units=km
New Line.P5587320-1$98996762 phases=1 Bus1=98996031.2 Bus2=98996765.2 LineCode=2_CLP_1PH_12KV_1 Length=0.003571 units=km
New Line.P5587327-2$98996949 phases=1 Bus1=98995632.3 Bus2=98996952.3 LineCode=2_CLP_1PH_12KV_1 Length=0.003358 units=km
New Line.99081870$P5564300-1 phases=1 Bus1=99081873.2 Bus2=98997435.2 LineCode=2_CLP_1PH_12KV_1 Length=0.002985 units=km
New Line.99082775$P5559292-2 phases=1 Bus1=99082778.1 Bus2=99081032.1 LineCode=2_CLP_1PH_12KV_1 Length=0.003859 units=km
New Line.J761-2P$219701761 phases=2 Bus1=219701559.1.3 Bus2=219701764.1.3 LineCode=1/0_JCN_2PH_12KV_2 Length=0.002472 units=km
New Line.P5060205-1$200649469 phases=3 Bus1=200649472.1.2.3 Bus2=38103036.1.2.3 LineCode=2_CLP_3PH_12KV_3 Length=0.505767 units=km
New Line.GS3933-2$P5325042-1 phases=3 Bus1=38103269.1.2.3 Bus2=38103390.1.2.3 LineCode=1/0_CLP_3PH_12KV_3 Length=0.201437 units=km
New Line.B5187089-2$B5187088-2 phases=1 Bus1=38117972.3 Bus2=38118044.3 LineCode=1/0_CLP_1PH_12KV_1 Length=0.129084 units=km
New Line.ND38194408$P5004404 phases=2 Bus1=38194408.1.3 Bus2=38151280.1.3 LineCode=2_CLP_2PH_12KV_2 Length=0.014312 units=km
New Line.B5005560-1$B5005562-2 phases=1 Bus1=38151517.1 Bus2=38151598.1 LineCode=1/0_CLP_1PH_12KV_1 Length=0.082717 units=km
New Line.ND218666591$PME5001-4 phases=3 Bus1=218666591.1.2.3 Bus2=38191196.1.2.3 LineCode=2_CLP_3PH_12KV_3 Length=0.042343 units=km
New Line.ND38194321$BS3001-1 phases=1 Bus1=38194321.1 Bus2=38192441.1 LineCode=1/0_CLP_1PH_12KV_1 Length=0.007134 units=km
New Line.ND38194408$ND38193844 phases=2 Bus1=38194408.1.3 Bus2=38193844.1.3 LineCode=2_CLP_2PH_12KV_2 Length=0.130892 units=km
New Line.ND38194321$ND38194761 phases=3 Bus1=38194321.1.2.3 Bus2=38194761.1.2.3 LineCode=1/0_CLP_3PH_12KV_3 Length=0.042018 units=km
New Line.ND38225208$J702-3P phases=3 Bus1=138774489.1.2.3 Bus2=38225208.1.2.3 LineCode=2_CLP_3PH_12KV_3 Length=0.265828 units=km
New Line.99082488$P5559297-1 phases=1 Bus1=99082491.2 Bus2=99080561.2 LineCode=2_CLP_1PH_12KV_1 Length=0.001424 units=km
New Line.99082255$P5564304-1 phases=1 Bus1=99082258.2 Bus2=99081409.2 LineCode=2_CLP_1PH_12KV_1 Length=0.001895 units=km
New Line.ND38193844$P5004406-1 phases=2 Bus1=38193844.1.3 Bus2=166618986.1.3 LineCode=2_CLP_2PH_12KV_2 Length=0.141131 units=km
New Line.176211058$ND38225208 phases=1 Bus1=38225208.3 Bus2=176211060.3 LineCode=2_CLP_1PH_12KV_1 Length=0.36658 units=km
New Line.188533038$188533013 phases=1 Bus1=188533015.2 Bus2=188533040.2 LineCode=1/0_JCN_1PH_12KV_1 Length=0.072393 units=km
New Line.ND38225208$203982244 phases=3 Bus1=38225208.1.2.3 Bus2=203982246.1.2.3 LineCode=2_CLP_3PH_12KV_3 Length=0.003507 units=km
New Line.J761-3P$219701786 phases=3 Bus1=219701551.1.2.3 Bus2=219701789.1.2.3 LineCode=2_CLP_3PH_12KV_3 Length=0.002472 units=km
New Line.ND38193844$P5004405 phases=2 Bus1=38193844.1.3 Bus2=38104202.1.3 LineCode=2_CLP_2PH_12KV_2 Length=0.024423 units=km
New Line.J702-2P$BS1215-1 phases=2 Bus1=138774505.1.3 Bus2=38104381.1.3 LineCode=2_CLP_2PH_12KV_2 Length=0.025529 units=km
New Line.ND38194761$2311374E phases=3 Bus1=38194761.1.2.3 Bus2=38120444.1.2.3 LineCode=2_AL_3PH_12KV_3 Length=0.075794 units=km
New Line.ND38194761$BS3002-1 phases=3 Bus1=38194761.1.2.3 Bus2=38192488.1.2.3 LineCode=1/0_CLP_3PH_12KV_3 Length=0.008163 units=km
New Line.98996436$98996461 phases=1 Bus1=98996438.1 Bus2=98996463.1 LineCode=2_CLP_1PH_12KV_1 Length=0.110393 units=km
New Line.98996762$98996787 phases=1 Bus1=98996764.2 Bus2=98996789.2 LineCode=2_CLP_1PH_12KV_1 Length=0.107549 units=km
New Line.98996949$98996974 phases=1 Bus1=98996951.3 Bus2=98996976.3 LineCode=2_CLP_1PH_12KV_1 Length=0.126836 units=km
New Line.P5564296-2$99082180 phases=1 Bus1=98997838.1 Bus2=99082183.1 LineCode=2_CLP_1PH_12KV_1 Length=0.000953 units=km
New Line.P5537227-1$170578023 phases=1 Bus1=84263296.2 Bus2=170578026.2 LineCode=2_CLP_1PH_12KV_1 Length=0.10046 units=km
New Line.219701761$219701828 phases=2 Bus1=219701763.1.3 Bus2=219701830.1.3 LineCode=1/0_JCN_2PH_12KV_2 Length=0.030809 units=km
New Line.J702-1P$BS0918-1 phases=3 Bus1=138774481.1.2.3 Bus2=38104331.1.2.3 LineCode=2_CLP_3PH_12KV_3 Length=0.013034 units=km
New Line.B5187090-1$B5187091-2 phases=1 Bus1=38104652.3 Bus2=38104715.3 LineCode=1/0_CLP_1PH_12KV_1 Length=0.144761 units=km
New Line.B5192832-1$B5192831-2 phases=1 Bus1=38104859.1 Bus2=38104940.1 LineCode=1/0_CLP_1PH_12KV_1 Length=0.142063 units=km
New Line.B5192830-1$B5187100-1 phases=1 Bus1=38117891.1 Bus2=38118179.1 LineCode=1/0_CLP_1PH_12KV_1 Length=0.171542 units=km
New Line.B5187083-2$B5187084-1 phases=1 Bus1=38118395.3 Bus2=38118332.3 LineCode=1/0_CLP_1PH_12KV_1 Length=0.153171 units=km
New Line.B5187081-2$B5187080-2 phases=1 Bus1=38118695.1 Bus2=38118623.1 LineCode=1/0_CLP_1PH_12KV_1 Length=0.200511 units=km
New Line.B5187098-2$B5448199-1 phases=1 Bus1=38118839.3 Bus2=38172571.3 LineCode=1/0_CLP_1PH_12KV_1 Length=0.086061 units=km
New Line.BS3001-1$ND38195091 phases=1 Bus1=38192442.1 Bus2=38195091.1 LineCode=1/0_CLP_1PH_12KV_1 Length=0.046962 units=km
New Line.P5564300-2$99081895 phases=1 Bus1=98997444.2 Bus2=99081898.2 LineCode=2_CLP_1PH_12KV_1 Length=0.003074 units=km
New Line.P5559292-1$99082800 phases=1 Bus1=99081023.1 Bus2=99082803.1 LineCode=2_CLP_1PH_12KV_1 Length=0.003284 units=km
New Line.BS1215-1$P5005248-1 phases=1 Bus1=38104380.3 Bus2=169093697.3 LineCode=2_CLP_1PH_12KV_1 Length=0.061377 units=km
New Line.P5662392-2$188533038 phases=1 Bus1=188533041.2 Bus2=188532610.2 LineCode=1/0_JCN_1PH_12KV_1 Length=0.002207 units=km
New Line.200649510$219701786 phases=3 Bus1=219701788.1.2.3 Bus2=200649512.1.2.3 LineCode=2_CLP_3PH_12KV_3 Length=0.061861 units=km
New Line.B5187087-1$B5187088-1 phases=1 Bus1=38118035.3 Bus2=38118107.3 LineCode=1/0_CLP_1PH_12KV_1 Length=0.086842 units=km
New Line.B5184757-2$ND38195091 phases=1 Bus1=38195091.1 Bus2=38120541.1 LineCode=1/0_CLP_1PH_12KV_1 Length=0.197393 units=km
New Line.B5184755-2$ND38195091 phases=1 Bus1=38195091.1 Bus2=38172135.1 LineCode=1/0_CLP_1PH_12KV_1 Length=0.24336 units=km
New Line.203982244$PME4565-4 phases=3 Bus1=203982247.1.2.3 Bus2=38172209.1.2.3 LineCode=2_CLP_3PH_12KV_3 Length=0.000419 units=km
New Line.176211058$PME4566-1 phases=1 Bus1=176211061.3 Bus2=38172521.3 LineCode=2_CLP_1PH_12KV_1 Length=0.00254 units=km
New Line.38191759$PME5001-2 phases=1 Bus1=38191206.2 Bus2=38191761.2 LineCode=2_CLP_1PH_12KV_1 Length=0.105102 units=km
New Line.BS3002-1$S5186997T1 phases=3 Bus1=38192489.1.2.3 Bus2=38193429.1.2.3 LineCode=1/0_CLP_3PH_12KV_3 Length=0.012095 units=km
New Line.98996461$P5587316-1 phases=1 Bus1=98996464.1 Bus2=98995208.1 LineCode=2_CLP_1PH_12KV_1 Length=0.001919 units=km
New Line.98996974$P5587328-1 phases=1 Bus1=98996977.3 Bus2=98995691.3 LineCode=2_CLP_1PH_12KV_1 Length=0.002567 units=km
New Line.P5587321-2$98996787 phases=1 Bus1=98996790.2 Bus2=98996108.2 LineCode=2_CLP_1PH_12KV_1 Length=0.003174 units=km
New Line.99082180$99082155 phases=1 Bus1=99082182.1 Bus2=99082157.1 LineCode=2_CLP_1PH_12KV_1 Length=0.036109 units=km
New Line.P5564304-2$99082283 phases=1 Bus1=99081418.2 Bus2=99082286.2 LineCode=2_CLP_1PH_12KV_1 Length=0.001994 units=km
New Line.P5559297-2$99082513 phases=1 Bus1=99080570.2 Bus2=99082516.2 LineCode=2_CLP_1PH_12KV_1 Length=0.002473 units=km
New Line.PME5001-3$ND140617480 phases=1 Bus1=38191215.3 Bus2=140617480.3 LineCode=2_CLP_1PH_12KV_1 Length=0.371766 units=km
New Line.ND165571869$P5004406-2 phases=2 Bus1=166618995.1.3 Bus2=165571869.1.3 LineCode=2_CLP_2PH_12KV_2 Length=0.02238 units=km
New Line.170578023$170578048 phases=1 Bus1=170578025.2 Bus2=170578050.2 LineCode=2_CLP_1PH_12KV_1 Length=0.050725 units=km
New Line.219701828$P5700767-2 phases=2 Bus1=219701831.1.3 Bus2=219701659.1.3 LineCode=1/0_JCN_2PH_12KV_2 Length=0.002069 units=km
New Line.PME5001-1$38191329 phases=1 Bus1=38191224.1 Bus2=38191331.1 LineCode=2_CLP_1PH_12KV_1 Length=0.122576 units=km
New Line.S5186997T1$ND38194308 phases=3 Bus1=38193429.1.2.3 Bus2=38194308.1.2.3 LineCode=1/0_CLP_3PH_12KV_3 Length=0.009885 units=km
New Line.BS0918-1$ND38194996 phases=2 Bus1=38104330.1.3 Bus2=38194996.1.3 LineCode=2_CLP_2PH_12KV_2 Length=0.019573 units=km
New Line.99081895$99081920 phases=1 Bus1=99081897.2 Bus2=99081922.2 LineCode=2_CLP_1PH_12KV_1 Length=0.12134 units=km
New Line.99082800$99082825 phases=1 Bus1=99082802.1 Bus2=99082827.1 LineCode=2_CLP_1PH_12KV_1 Length=0.070896 units=km
New Line.ND140617480$147241444 phases=1 Bus1=140617480.3 Bus2=147241446.3 LineCode=2_CLP_1PH_12KV_1 Length=0.08418 units=km
New Line.200649510$P5529760-1 phases=3 Bus1=200649513.1.2.3 Bus2=151287722.1.2.3 LineCode=2_CLP_3PH_12KV_3 Length=0.002453 units=km
New Line.176211085$PME4566-1 phases=1 Bus1=38172522.3 Bus2=176211088.3 LineCode=2_CLP_1PH_12KV_1 Length=0.002545 units=km
New Line.ND165571869$218778213 phases=2 Bus1=165571869.1.3 Bus2=218778215.1.3 LineCode=2_CLP_2PH_12KV_2 Length=0.098552 units=km
New Line.240888521$ND140617480 phases=1 Bus1=140617480.3 Bus2=240888523.3 LineCode=2_CLP_1PH_12KV_1 Length=0.071737 units=km
New Line.B5160945-1$ND165571869 phases=2 Bus1=165571869.1.3 Bus2=38104571.1.3 LineCode=2_CLP_2PH_12KV_2 Length=0.019098 units=km
New Line.B5187100-2$B5187099-1 phases=1 Bus1=38118188.1 Bus2=38118251.1 LineCode=1/0_CLP_1PH_12KV_1 Length=0.109662 units=km
New Line.ND38194996$B5017046-1 phases=1 Bus1=38194996.1 Bus2=38151733.1 LineCode=2_CLP_1PH_12KV_1 Length=0.06684 units=km
New Line.B5017047-1$ND38194996 phases=1 Bus1=38194996.3 Bus2=38151805.3 LineCode=2_CLP_1PH_12KV_1 Length=0.103358 units=km
New Line.P5448274-1$ND38194308 phases=1 Bus1=38194308.2 Bus2=38173521.2 LineCode=1/0_CLP_1PH_12KV_1 Length=0.076039 units=km
New Line.P5512586-2$38191759 phases=1 Bus1=38191762.2 Bus2=38191784.2 LineCode=2_CLP_1PH_12KV_1 Length=0.00055 units=km
New Line.ND38193659$B5448199-2 phases=1 Bus1=38172580.3 Bus2=38193659.3 LineCode=1/0_CLP_1PH_12KV_1 Length=0.006138 units=km
New Line.ND38194308$ND38194372 phases=1 Bus1=38194308.1 Bus2=38194372.1 LineCode=1/0_CLP_1PH_12KV_1 Length=0.023011 units=km
New Line.99082155$P5564297-1 phases=1 Bus1=99082158.1 Bus2=98997908.1 LineCode=2_CLP_1PH_12KV_1 Length=0.000967 units=km
New Line.99082283$99082307 phases=1 Bus1=99082285.2 Bus2=99082309.2 LineCode=2_CLP_1PH_12KV_1 Length=0.035636 units=km
New Line.99082513$99082538 phases=1 Bus1=99082515.2 Bus2=99082540.2 LineCode=2_CLP_1PH_12KV_1 Length=0.035292 units=km
New Line.PME4565-2$203982296 phases=1 Bus1=38172219.2 Bus2=203982299.2 LineCode=2_CLP_1PH_12KV_1 Length=0.178678 units=km
New Line.ND38193659$ND38104040 phases=1 Bus1=38193659.3 Bus2=38104018.3 LineCode=1/0_CLP_1PH_12KV_1 Length=0.148527 units=km
New Line.ND38193659$B5187096-1 phases=1 Bus1=38193659.3 Bus2=38118758.3 LineCode=1/0_CLP_1PH_12KV_1 Length=0.17514 units=km
New Line.B5184757-1$B5184758-2 phases=1 Bus1=38120532.1 Bus2=38120469.1 LineCode=1/0_CLP_1PH_12KV_1 Length=0.082476 units=km
New Line.B5184755-1$B5184756-2 phases=1 Bus1=38172126.1 Bus2=38120613.1 LineCode=1/0_CLP_1PH_12KV_1 Length=0.094392 units=km
New Line.P5005248-2$P5005249-1 phases=1 Bus1=169093706.3 Bus2=38191113.3 LineCode=2_CLP_1PH_12KV_1 Length=0.095027 units=km
New Line.P5512581-1$38191329 phases=1 Bus1=38191332.1 Bus2=38191345.1 LineCode=2_CLP_1PH_12KV_1 Length=0.000379 units=km
New Line.ND38194372$ND38194120 phases=1 Bus1=38194372.1 Bus2=38194120.1 LineCode=1/0_CLP_1PH_12KV_1 Length=0.171215 units=km
New Line.170578048$P5537228-2 phases=1 Bus1=170578051.2 Bus2=84263373.2 LineCode=2_CLP_1PH_12KV_1 Length=0.002409 units=km
New Line.P5587316-2$98996490 phases=1 Bus1=98995217.1 Bus2=98996493.1 LineCode=2_CLP_1PH_12KV_1 Length=0.003338 units=km
New Line.P5587321-1$98996824 phases=1 Bus1=98996099.2 Bus2=98996827.2 LineCode=2_CLP_1PH_12KV_1 Length=0.004644 units=km
New Line.P5587328-2$98997081 phases=1 Bus1=98995700.3 Bus2=98997084.3 LineCode=2_CLP_1PH_12KV_1 Length=0.002155 units=km
New Line.99081920$P5564301-1 phases=1 Bus1=99081923.2 Bus2=98997503.2 LineCode=2_CLP_1PH_12KV_1 Length=0.002857 units=km
New Line.99082825$P5559293-2 phases=1 Bus1=99082828.1 Bus2=99081107.1 LineCode=2_CLP_1PH_12KV_1 Length=0.002786 units=km
New Line.147241444$P5512591-2 phases=1 Bus1=147241447.3 Bus2=147241386.3 LineCode=2_CLP_1PH_12KV_1 Length=0.005593 units=km
New Line.PME4565-3$203982271 phases=1 Bus1=38172228.1 Bus2=203982274.1 LineCode=2_CLP_1PH_12KV_1 Length=0.071551 units=km
New Line.PME4565-1$203982321 phases=1 Bus1=38172237.3 Bus2=203982324.3 LineCode=2_CLP_1PH_12KV_1 Length=0.000702 units=km
New Line.218778213$P5004408-1 phases=2 Bus1=218778216.1.3 Bus2=218778146.1.3 LineCode=2_CLP_2PH_12KV_2 Length=0.002355 units=km
New Line.B5062381-1$176211085 phases=1 Bus1=176211087.3 Bus2=38119118.3 LineCode=2_CLP_1PH_12KV_1 Length=0.035296 units=km
New Line.B5184753-1$ND38194120 phases=1 Bus1=38194120.1 Bus2=38120748.1 LineCode=1/0_CLP_1PH_12KV_1 Length=0.082724 units=km
New Line.B5184751-2$ND38194120 phases=1 Bus1=38194120.1 Bus2=38120829.1 LineCode=1/0_CLP_1PH_12KV_1 Length=0.1276 units=km
New Line.P5512592-1$240888521 phases=1 Bus1=240888524.3 Bus2=38192133.3 LineCode=2_CLP_1PH_12KV_1 Length=0.006277 units=km
New Line.99082538$P5559298-1 phases=1 Bus1=99082541.2 Bus2=99080643.2 LineCode=2_CLP_1PH_12KV_1 Length=0.003099 units=km
New Line.99082307$P5564305-1 phases=1 Bus1=99082310.2 Bus2=99081484.2 LineCode=2_CLP_1PH_12KV_1 Length=0.00149 units=km
New Line.B5017045-1$B5017046-2 phases=1 Bus1=38151742.1 Bus2=38151661.1 LineCode=2_CLP_1PH_12KV_1 Length=0.127154 units=km
New Line.B5017048-2$B5017047-2 phases=1 Bus1=38151814.3 Bus2=38151886.3 LineCode=2_CLP_1PH_12KV_1 Length=0.136012 units=km
New Line.P5512586-1$38191749 phases=1 Bus1=38191775.2 Bus2=38191752.2 LineCode=2_CLP_1PH_12KV_1 Length=0.002557 units=km
New Line.ND38194046$203982296 phases=1 Bus1=203982298.2 Bus2=38194046.2 LineCode=2_CLP_1PH_12KV_1 Length=0.031348 units=km
New Line.98996490$98996515 phases=1 Bus1=98996492.1 Bus2=98996517.1 LineCode=2_CLP_1PH_12KV_1 Length=0.123379 units=km
New Line.98996824$98996640 phases=1 Bus1=98996826.2 Bus2=98996642.2 LineCode=2_CLP_1PH_12KV_1 Length=0.134615 units=km
New Line.98997081$98997111 phases=1 Bus1=98997083.3 Bus2=98997113.3 LineCode=2_CLP_1PH_12KV_1 Length=0.128247 units=km
New Line.P5564297-2$99082113 phases=1 Bus1=98997917.1 Bus2=99082116.1 LineCode=2_CLP_1PH_12KV_1 Length=0.001352 units=km
New Line.P5537228-1$170578075 phases=1 Bus1=84263364.2 Bus2=170578078.2 LineCode=2_CLP_1PH_12KV_1 Length=0.084978 units=km
New Line.J158-3P$203982271 phases=1 Bus1=203982273.1 Bus2=218234860.1 LineCode=2_CLP_1PH_12KV_1 Length=0.278726 units=km
New Line.B5146154-1$P5005249-2 phases=1 Bus1=38191122.3 Bus2=38104499.3 LineCode=2_CLP_1PH_12KV_1 Length=0.090825 units=km
New Line.203982321$B5146157-1 phases=1 Bus1=203982323.3 Bus2=38119625.3 LineCode=2_CLP_1PH_12KV_1 Length=0.194488 units=km
New Line.B5055701-1$ND38194046 phases=1 Bus1=38194046.2 Bus2=38151949.2 LineCode=2_CLP_1PH_12KV_1 Length=0.052921 units=km
New Line.B5055703-1$ND38194046 phases=1 Bus1=38194046.2 Bus2=38152021.2 LineCode=2_CLP_1PH_12KV_1 Length=0.06165 units=km
New Line.P5512581-2$38191319 phases=1 Bus1=38191354.1 Bus2=38191322.1 LineCode=2_CLP_1PH_12KV_1 Length=1.2e-05 units=km
New Line.P5564301-2$ND98998089 phases=1 Bus1=98997512.2 Bus2=98998089.2 LineCode=2_CLP_1PH_12KV_1 Length=0.001992 units=km
New Line.P5559293-1$99082853 phases=1 Bus1=99081098.1 Bus2=99082856.1 LineCode=2_CLP_1PH_12KV_1 Length=0.002302 units=km
New Line.174894679$B5184751-1 phases=1 Bus1=38120820.1 Bus2=174894681.1 LineCode=1/0_CLP_1PH_12KV_1 Length=0.015746 units=km
New Line.P5512592-2$ND175180230 phases=1 Bus1=38192142.3 Bus2=175180230.3 LineCode=2_CLP_1PH_12KV_1 Length=0.002109 units=km
New Line.B5184753-2$B5184754-2 phases=1 Bus1=38120757.1 Bus2=38120685.1 LineCode=1/0_CLP_1PH_12KV_1 Length=0.016463 units=km
New Line.38191749$38191841 phases=1 Bus1=38191751.2 Bus2=38191843.2 LineCode=2_CLP_1PH_12KV_1 Length=0.039968 units=km
New Line.B5062381-2$ND38225416 phases=1 Bus1=38119127.3 Bus2=38225416.3 LineCode=2_CLP_1PH_12KV_1 Length=0.007002 units=km
New Line.98996515$P5587317-1 phases=1 Bus1=98996518.1 Bus2=98995351.1 LineCode=2_CLP_1PH_12KV_1 Length=0.015018 units=km
New Line.P5587329-1$98997111 phases=1 Bus1=98997114.3 Bus2=98995759.3 LineCode=2_CLP_1PH_12KV_1 Length=0.00322 units=km
New Line.98996640$P5587322-2 phases=1 Bus1=98996643.2 Bus2=98995836.2 LineCode=2_CLP_1PH_12KV_1 Length=0.002803 units=km
New Line.99081945$ND98998089 phases=1 Bus1=98998089.2 Bus2=99081948.2 LineCode=2_CLP_1PH_12KV_1 Length=0.00238 units=km
New Line.ND98998089$99081995 phases=1 Bus1=98998089.2 Bus2=99081998.2 LineCode=2_CLP_1PH_12KV_1 Length=0.001905 units=km
New Line.99082088$99082113 phases=1 Bus1=99082115.1 Bus2=99082090.1 LineCode=2_CLP_1PH_12KV_1 Length=0.066215 units=km
New Line.P5564305-2$99082332 phases=1 Bus1=99081493.2 Bus2=99082335.2 LineCode=2_CLP_1PH_12KV_1 Length=0.002387 units=km
New Line.P5559298-2$99082563 phases=1 Bus1=99080652.2 Bus2=99082566.2 LineCode=2_CLP_1PH_12KV_1 Length=0.002807 units=km
New Line.170578075$170578100 phases=1 Bus1=170578077.2 Bus2=170578102.2 LineCode=2_CLP_1PH_12KV_1 Length=0.110316 units=km
New Line.B5062380-1$ND38225416 phases=1 Bus1=38225416.3 Bus2=38119046.3 LineCode=2_CLP_1PH_12KV_1 Length=0.074886 units=km
New Line.B5323896-1$ND38225416 phases=1 Bus1=38225416.3 Bus2=38119190.3 LineCode=2_CLP_1PH_12KV_1 Length=0.02529 units=km
New Line.38191319$38191411 phases=1 Bus1=38191321.1 Bus2=38191413.1 LineCode=2_CLP_1PH_12KV_1 Length=0.059097 units=km
New Line.38192281$ND175180230 phases=1 Bus1=175180230.3 Bus2=38192283.3 LineCode=2_CLP_1PH_12KV_1 Length=0.081411 units=km
New Line.ND175180230$38193417 phases=1 Bus1=175180230.3 Bus2=38193420.3 LineCode=2_CLP_1PH_12KV_1 Length=0.001398 units=km
New Line.99082853$99082878 phases=1 Bus1=99082855.1 Bus2=99082880.1 LineCode=2_CLP_1PH_12KV_1 Length=0.036117 units=km
New Line.ND38194698$GS5409-1 phases=3 Bus1=38194698.1.2.3 Bus2=138259390.1.2.3 LineCode=1/0_CLP_3PH_12KV_3 Length=0.110147 units=km
New Line.ND38194698$P5625222-1 phases=3 Bus1=38194698.1.2.3 Bus2=138650816.1.2.3 LineCode=1/0_CLP_3PH_12KV_3 Length=0.004401 units=km
New Line.GS2449-2$ND147241521 phases=3 Bus1=38140139.1.2.3 Bus2=147241521.1.2.3 LineCode=750_JCN_3PH_12KV_3 Length=0.011122 units=km
New Line.205030793$J637-3P phases=3 Bus1=205030796.1.2.3 Bus2=205030629.1.2.3 LineCode=1/0_JCN_3PH_12KV_3 Length=0.000882 units=km
New Line.B5170724-1$B5170723-2 phases=1 Bus1=38173141.1 Bus2=38173078.1 LineCode=2_CLP_1PH_12KV_1 Length=0.072551 units=km
New Line.GS2449-4$ND38193915 phases=3 Bus1=38140163.1.2.3 Bus2=38193915.1.2.3 LineCode=750_CLP_3PH_12KV_3 Length=0.416238 units=km
New Line.ND147241521$J013-1P phases=3 Bus1=147241521.1.2.3 Bus2=143578830.1.2.3 LineCode=750_JCN_3PH_12KV_3 Length=0.23298 units=km
New Line.GS2305-1$ND38193915 phases=3 Bus1=38193915.1.2.3 Bus2=38121158.1.2.3 LineCode=750_CLP_3PH_12KV_3 Length=0.432532 units=km
New Line.ND38193915$BS2302-1 phases=1 Bus1=38193915.3 Bus2=38140306.3 LineCode=2_CLP_1PH_12KV_1 Length=0.012315 units=km
New Line.170327828$P5002806-1 phases=3 Bus1=170327831.1.2.3 Bus2=38171104.1.2.3 LineCode=1/0_CLP_3PH_12KV_3 Length=0.001936 units=km
New Line.GS2449-1$V5182485 phases=3 Bus1=38140147.1.2.3 Bus2=38192923.1.2.3 LineCode=1/0_CLP_3PH_12KV_3 Length=0.020813 units=km
New Line.P5520315-1$B5170720-1 phases=1 Bus1=38141986.2 Bus2=94869948.2 LineCode=2_CLP_1PH_12KV_1 Length=0.05757 units=km
New Line.B5170723-1$B5170722-2 phases=1 Bus1=38173069.1 Bus2=38173006.1 LineCode=2_CLP_1PH_12KV_1 Length=0.04399 units=km
New Line.BS2302-1$ND38194113 phases=1 Bus1=38140305.3 Bus2=38194113.3 LineCode=2_CLP_1PH_12KV_1 Length=0.00764 units=km
New Line.PME5535-4$RCS5410-2 phases=3 Bus1=38149694.1.2.3 Bus2=150375933.1.2.3 LineCode=2_JCN_3PH_12KV_3 Length=0.102501 units=km
New Line.P5002806-2$170327855 phases=2 Bus1=38171113.1.3 Bus2=170327858.1.3 LineCode=1/0_CLP_2PH_12KV_2 Length=0.10468 units=km
New Line.ND220038122$B5146157-2 phases=1 Bus1=38119634.3 Bus2=220038122.3 LineCode=2_CLP_1PH_12KV_1 Length=0.04944 units=km
New Line.B5146154-2$B5146153-1 phases=1 Bus1=38104508.3 Bus2=38104427.3 LineCode=2_CLP_1PH_12KV_1 Length=0.076989 units=km
New Line.B5055702-1$B5055701-2 phases=1 Bus1=38151958.2 Bus2=38152093.2 LineCode=2_CLP_1PH_12KV_1 Length=0.169909 units=km
New Line.B5055703-2$B5055704-1 phases=1 Bus1=38152030.2 Bus2=38152165.2 LineCode=2_CLP_1PH_12KV_1 Length=0.129691 units=km
New Line.P5433634-2$174894679 phases=1 Bus1=174894682.1 Bus2=38171491.1 LineCode=1/0_CLP_1PH_12KV_1 Length=0.002158 units=km
New Line.38191841$P5512587-2 phases=1 Bus1=38191844.2 Bus2=38191876.2 LineCode=2_CLP_1PH_12KV_1 Length=0.004416 units=km
New Line.99082088$P5564298-1 phases=1 Bus1=99082091.1 Bus2=98997983.1 LineCode=2_CLP_1PH_12KV_1 Length=0.0016 units=km
New Line.99081970$99081945 phases=1 Bus1=99081947.2 Bus2=99081972.2 LineCode=2_CLP_1PH_12KV_1 Length=0.058326 units=km
New Line.99081995$99082020 phases=1 Bus1=99081997.2 Bus2=99082022.2 LineCode=2_CLP_1PH_12KV_1 Length=0.070073 units=km
New Line.99082332$99082357 phases=1 Bus1=99082334.2 Bus2=99082359.2 LineCode=2_CLP_1PH_12KV_1 Length=0.06573 units=km
New Line.99082563$99082588 phases=1 Bus1=99082565.2 Bus2=99082590.2 LineCode=2_CLP_1PH_12KV_1 Length=0.035488 units=km
New Line.J637-2P$205030818 phases=1 Bus1=205030637.3 Bus2=205030821.3 LineCode=2_CLP_1PH_12KV_1 Length=0.001033 units=km
New Line.GS5409-2$P5000697-1 phases=3 Bus1=138259382.1.2.3 Bus2=255053980.1.2.3 LineCode=2_CLP_3PH_12KV_3 Length=0.050574 units=km
New Line.B5175889-2$ND38194113 phases=1 Bus1=38194113.3 Bus2=38140436.3 LineCode=2_CLP_1PH_12KV_1 Length=0.062485 units=km
New Line.B5175890-1$ND38194113 phases=1 Bus1=38194113.3 Bus2=38140715.3 LineCode=2_CLP_1PH_12KV_1 Length=0.077514 units=km
New Line.ND38194113$ND38225795 phases=1 Bus1=38194113.3 Bus2=38225795.3 LineCode=2_CLP_1PH_12KV_1 Length=0.013252 units=km
New Line.ND138259556$GS5409-3 phases=3 Bus1=138259398.1.2.3 Bus2=138259556.1.2.3 LineCode=1/0_CLP_3PH_12KV_3 Length=0.124675 units=km
New Line.J637-1P$205030857 phases=1 Bus1=205030621.3 Bus2=205030860.3 LineCode=2_CLP_1PH_12KV_1 Length=0.001033 units=km