! OpenDSS script generated from multiconductor network
Clear

New Circuit.mc_network basekv=12.0 pu=1.000000 angle=0.00 frequency=60.0 phases=3 Mvasc3=143993 Mvasc1=47997.6
~ bus1=-8888882180114.1.2.3

! Line codes
New LineCode.1000_JCN_3PH_12KV_3 nphases=3 units=km Rmatrix=[ 0.055463 | 0 0.055463 | 0 0 0.055463 ] Xmatrix=[ 0.083954 | 0 0.083954 | 0 0 0.083954 ] Cmatrix=[ 0 | 0 0 | 0 0 0 ]
New LineCode.350_CLP_3PH_12KV_3 nphases=3 units=km Rmatrix=[ 0.065191 | 0 0.065191 | 0 0 0.065191 ] Xmatrix=[ 0.049531 | 0 0.049531 | 0 0 0.049531 ] Cmatrix=[ 0 | 0 0 | 0 0 0 ]
New LineCode.750_CLP_3PH_12KV_3 nphases=3 units=km Rmatrix=[ 0.037629 | 0 0.037629 | 0 0 0.037629 ] Xmatrix=[ 0.046213 | 0 0.046213 | 0 0 0.046213 ] Cmatrix=[ 0 | 0 0 | 0 0 0 ]
New LineCode.350_CLP_1PH_12KV_1 nphases=1 units=km Rmatrix=[ 0.000295 ] Xmatrix=[ 0.000224 ] Cmatrix=[ 0 ]
New LineCode.2_CLP_3PH_12KV_3 nphases=3 units=km Rmatrix=[ 0.210721 | 0 0.210721 | 0 0 0.210721 ] Xmatrix=[ 0.044416 | 0 0.044416 | 0 0 0.044416 ] Cmatrix=[ 0 | 0 0 | 0 0 0 ]
New LineCode.750_JCN_1PH_12KV_1 nphases=1 units=km Rmatrix=[ 0.011495 ] Xmatrix=[ 0.014118 ] Cmatrix=[ 0 ]
New LineCode.1/0_CLP_1PH_12KV_1 nphases=1 units=km Rmatrix=[ 0.070367 ] Xmatrix=[ 0.021507 ] Cmatrix=[ 0 ]
New LineCode.1/0_CLP_3PH_12KV_3 nphases=3 units=km Rmatrix=[ 0.00978 | 0 0.00978 | 0 0 0.00978 ] Xmatrix=[ 0.002989 | 0 0.002989 | 0 0 0.002989 ] Cmatrix=[ 0 | 0 0 | 0 0 0 ]
New LineCode.1/0_JCN_1PH_12KV_1 nphases=1 units=km Rmatrix=[ 0.008608 ] Xmatrix=[ 0.002631 ] Cmatrix=[ 0 ]
New LineCode.1/0_JCN_3PH_12KV_3 nphases=3 units=km Rmatrix=[ 0.119831 | 0 0.119831 | 0 0 0.119831 ] Xmatrix=[ 0.036626 | 0 0.036626 | 0 0 0.036626 ] Cmatrix=[ 0 | 0 0 | 0 0 0 ]
New LineCode.2_CLP_1PH_12KV_1 nphases=1 units=km Rmatrix=[ 0.012732 ] Xmatrix=[ 0.002684 ] Cmatrix=[ 0 ]
New LineCode.750_JCN_3PH_12KV_3 nphases=3 units=km Rmatrix=[ 0.000245 | 0 0.000245 | 0 0 0.000245 ] Xmatrix=[ 0.000301 | 0 0.000301 | 0 0 0.000301 ] Cmatrix=[ 0 | 0 0 | 0 0 0 ]
New LineCode.750_CLP_1PH_12KV_1 nphases=1 units=km Rmatrix=[ 0.002823 ] Xmatrix=[ 0.003467 ] Cmatrix=[ 0 ]
New LineCode.750_JCN_2PH_12KV_2 nphases=2 units=km Rmatrix=[ 0.0366 | 0 0.0366 ] Xmatrix=[ 0.04495 | 0 0.04495 ] Cmatrix=[ 0 | 0 0 ]
New LineCode.750_CLP_ABC_12_3 nphases=3 units=km Rmatrix=[ 0.032635 | 0 0.032635 | 0 0 0.032635 ] Xmatrix=[ 0.04008 | 0 0.04008 | 0 0 0.04008 ] Cmatrix=[ 0 | 0 0 | 0 0 0 ]
New LineCode.350_CLP_ABC_12_3 nphases=3 units=km Rmatrix=[ 0.006962 | 0 0.006962 | 0 0 0.006962 ] Xmatrix=[ 0.00529 | 0 0.00529 | 0 0 0.00529 ] Cmatrix=[ 0 | 0 0 | 0 0 0 ]

! Lines
New Line.GS5076-2$ND143741853 phases=3 Bus1=143741853.1.2.3 Bus2=28108486.1.2.3 LineCode=1000_JCN_3PH_12KV_3 Length=0.406449 units=km
New Line.GS5076-3$ND148530569 phases=3 Bus1=28108502.1.2.3 Bus2=148530569.1.2.3 LineCode=1000_JCN_3PH_12KV_3 Length=0.033166 units=km
New Line.GS5076-4$ND148530661 phases=3 Bus1=28108510.1.2.3 Bus2=148530661.1.2.3 LineCode=350_CLP_3PH_12KV_3 Length=0.010491 units=km
New Line.ND190596263$ND30070004 phases=3 Bus1=30070004.1.2.3 Bus2=190596263.1.2.3 LineCode=350_CLP_3PH_12KV_3 Length=0.058829 units=km
New Line.ND148530661$PME4302-4 phases=3 Bus1=148530661.1.2.3 Bus2=28163114.1.2.3 LineCode=350_CLP_3PH_12KV_3 Length=0.527202 units=km
New Line.PME4336-1$ND30070004 phases=3 Bus1=30070004.1.2.3 Bus2=29948294.1.2.3 LineCode=750_CLP_3PH_12KV_3 Length=0.310582 units=km
New Line.J807A-2P$ND148530661 phases=3 Bus1=148530661.1.2.3 Bus2=30032517.1.2.3 LineCode=350_CLP_3PH_12KV_3 Length=0.050549 units=km
New Line.ND30070004$M5401835T1 phases=3 Bus1=30070004.1.2.3 Bus2=30068646.1.2.3 LineCode=750_CLP_3PH_12KV_3 Length=0.002861 units=km
New Line.ND110296922$ND190596263 phases=3 Bus1=190596263.1.2.3 Bus2=110296922.1.2.3 LineCode=350_CLP_3PH_12KV_3 Length=0.237451 units=km
New Line.M5401835T1$30069434 phases=3 Bus1=30068646.1.2.3 Bus2=30069436.1.2.3 LineCode=750_CLP_3PH_12KV_3 Length=0.069164 units=km
New Line.P5445449PT$ND110296922 phases=1 Bus1=110296922.2 Bus2=110296904.2 LineCode=350_CLP_1PH_12KV_1 Length=0.000651 units=km
New Line.ND110296922$RCS4521-4 phases=3 Bus1=110296922.1.2.3 Bus2=28225209.1.2.3 LineCode=350_CLP_3PH_12KV_3 Length=0.008609 units=km
New Line.RCS4301-2$ND110553363 phases=3 Bus1=29979472.1.2.3 Bus2=110553363.1.2.3 LineCode=750_CLP_3PH_12KV_3 Length=0.007412 units=km
New Line.P5530884-1$P5530883-B phases=3 Bus1=98843195.1.2.3 Bus2=98843284.1.2.3 LineCode=2_CLP_3PH_12KV_3 Length=0.106337 units=km
New Line.148120290$148120263 phases=1 Bus1=148120292.2 Bus2=148120265.2 LineCode=750_JCN_1PH_12KV_1 Length=0.102032 units=km
New Line.ND164641964$ND164642119 phases=1 Bus1=164642119.3 Bus2=164641964.3 LineCode=1/0_CLP_1PH_12KV_1 Length=0.19023 units=km
New Line.169710768$28227129 phases=3 Bus1=28227131.1.2.3 Bus2=169710770.1.2.3 LineCode=1/0_CLP_3PH_12KV_3 Length=0.115351 units=km
New Line.182015224$ND182015188 phases=1 Bus1=182015226.1 Bus2=182015188.1 LineCode=1/0_JCN_1PH_12KV_1 Length=0.03398 units=km
New Line.148120155$190596484 phases=1 Bus1=148120157.2 Bus2=190596486.2 LineCode=750_JCN_1PH_12KV_1 Length=0.123956 units=km
New Line.196537117$196537201 phases=1 Bus1=196537119.1 Bus2=196537203.1 LineCode=1/0_JCN_1PH_12KV_1 Length=0.091017 units=km
New Line.28227089$84566552 phases=1 Bus1=84566554.2 Bus2=28227091.2 LineCode=1/0_CLP_1PH_12KV_1 Length=0.38521 units=km
New Line.B5420965-1$B5420964-1 phases=1 Bus1=29950366.3 Bus2=29949594.3 LineCode=1/0_CLP_1PH_12KV_1 Length=0.062697 units=km
New Line.B5420880-2$ND164642119 phases=1 Bus1=164642119.3 Bus2=29976931.3 LineCode=1/0_CLP_1PH_12KV_1 Length=0.197298 units=km
New Line.P5439691-1$91220261 phases=3 Bus1=91220263.1.2.3 Bus2=30035308.1.2.3 LineCode=2_CLP_3PH_12KV_3 Length=0.100032 units=km
New Line.J045A-4P$90647323 phases=3 Bus1=28226477.1.2.3 Bus2=90647295.1.2.3 LineCode=2_CLP_3PH_12KV_3 Length=0.001351 units=km
New Line.ND182015188$182015304 phases=1 Bus1=182015188.1 Bus2=182015306.1 LineCode=1/0_JCN_1PH_12KV_1 Length=0.008207 units=km
New Line.ND182015188$182015347 phases=1 Bus1=182015188.1 Bus2=182015349.1 LineCode=1/0_JCN_1PH_12KV_1 Length=0.088019 units=km
New Line.191166058$ND191165985 phases=3 Bus1=191166061.1.2.3 Bus2=191165967.1.2.3 LineCode=1/0_JCN_3PH_12KV_3 Length=0.00624 units=km
New Line.28227139$P5421176-1 phases=3 Bus1=28227141.1.2.3 Bus2=28192731.1.2.3 LineCode=1/0_CLP_3PH_12KV_3 Length=0.332748 units=km
New Line.30069434$P5439637-1 phases=3 Bus1=30069437.1.2.3 Bus2=30009319.1.2.3 LineCode=750_CLP_3PH_12KV_3 Length=0.002648 units=km
New Line.91220176$J448-3P phases=3 Bus1=91220179.1.2.3 Bus2=30036437.1.2.3 LineCode=350_CLP_3PH_12KV_3 Length=0.001411 units=km
New Line.RCS4301-3$ND30070717 phases=3 Bus1=29979454.1.2.3 Bus2=30070717.1.2.3 LineCode=350_CLP_3PH_12KV_3 Length=0.011777 units=km
New Line.ND110553363$P5399692PT phases=1 Bus1=110553363.2 Bus2=110553374.2 LineCode=2_CLP_1PH_12KV_1 Length=0.036303 units=km
New Line.RCS5896-2$PME4336-3 phases=3 Bus1=29948267.1.2.3 Bus2=148119323.1.2.3 LineCode=1000_JCN_3PH_12KV_3 Length=0.021719 units=km
New Line.V5401807$J807A-3P phases=1 Bus1=30032501.2 Bus2=148530832.2 LineCode=350_CLP_1PH_12KV_1 Length=0.001335 units=km
New Line.PMH4302-3$J706A-1P phases=3 Bus1=28163105.1.2.3 Bus2=28190472.1.2.3 LineCode=350_CLP_3PH_12KV_3 Length=0.025013 units=km
New Line.ND110553363$ND285670890 phases=3 Bus1=110553363.1.2.3 Bus2=285670890.1.2.3 LineCode=750_CLP_3PH_12KV_3 Length=0.330199 units=km
New Line.PME4312-4$PME4336-2 phases=3 Bus1=29948285.1.2.3 Bus2=29948463.1.2.3 LineCode=750_JCN_3PH_12KV_3 Length=0.844769 units=km
New Line.PME4881-1$ND30070717 phases=3 Bus1=30070717.1.2.3 Bus2=30033752.1.2.3 LineCode=1/0_CLP_3PH_12KV_3 Length=0.44302 units=km
New Line.30069444$J807A-1P phases=3 Bus1=30032493.1.2.3 Bus2=30069446.1.2.3 LineCode=350_CLP_3PH_12KV_3 Length=0.063721 units=km
New Line.ND30070717$P5399692 phases=3 Bus1=30070717.1.2.3 Bus2=30069652.1.2.3 LineCode=350_CLP_3PH_12KV_3 Length=0.009855 units=km
New Line.P5399692$GS5248-1 phases=3 Bus1=30069652.1.2.3 Bus2=30067956.1.2.3 LineCode=350_CLP_3PH_12KV_3 Length=0.35112 units=km
New Line.ND30070419$ND285670890 phases=3 Bus1=285670890.1.2.3 Bus2=30070419.1.2.3 LineCode=750_CLP_3PH_12KV_3 Length=0.002984 units=km
New Line.J807A-4P$91220216 phases=3 Bus1=30032509.1.2.3 Bus2=91220218.1.2.3 LineCode=1/0_CLP_3PH_12KV_3 Length=0.27695 units=km
New Line.GS5912-1$ND30070419 phases=3 Bus1=30070419.1.2.3 Bus2=150247093.1.2.3 LineCode=750_JCN_3PH_12KV_3 Length=0.170731 units=km
New Line.30069444$P5433815-A phases=3 Bus1=30069447.1.2.3 Bus2=162167209.1.2.3 LineCode=350_CLP_3PH_12KV_3 Length=0.001844 units=km
New Line.ND30070419$BS4486-1 phases=1 Bus1=30070419.2 Bus2=30036380.2 LineCode=750_CLP_1PH_12KV_1 Length=0.025037 units=km
New Line.B5412599-1$ND164641964 phases=1 Bus1=164641964.3 Bus2=29976994.3 LineCode=1/0_CLP_1PH_12KV_1 Length=0.113671 units=km
New Line.ND164641964$B5412691-2 phases=1 Bus1=164641964.3 Bus2=29977075.3 LineCode=1/0_CLP_1PH_12KV_1 Length=0.068616 units=km
New Line.B5420889-1$ND30070111 phases=1 Bus1=29976850.1 Bus2=30070111.1 LineCode=1/0_CLP_1PH_12KV_1 Length=0.023152 units=km
New Line.84566502$ND84566435 phases=1 Bus1=84566504.1 Bus2=84566435.1 LineCode=1/0_CLP_1PH_12KV_1 Length=0.010766 units=km
New Line.84566527$ND84566466 phases=1 Bus1=84566529.3 Bus2=84566466.3 LineCode=1/0_CLP_1PH_12KV_1 Length=0.010766 units=km
New Line.91220286$91220321 phases=3 Bus1=91220288.1.2.3 Bus2=91220323.1.2.3 LineCode=1/0_CLP_3PH_12KV_3 Length=0.168247 units=km
New Line.ND84566466$ND177029658 phases=1 Bus1=84566466.3 Bus2=177029658.3 LineCode=1/0_CLP_1PH_12KV_1 Length=0.009401 units=km
New Line.J370A-4P$179095086 phases=3 Bus1=30067805.1.2.3 Bus2=179095089.1.2.3 LineCode=1/0_JCN_3PH_12KV_3 Length=0.001337 units=km
New Line.196537201$P5656446-2 phases=1 Bus1=196537204.1 Bus2=196536824.1 LineCode=1/0_JCN_1PH_12KV_1 Length=0.000359 units=km
New Line.204734131$P5445272-B phases=3 Bus1=204734191.1.2.3 Bus2=204734134.1.2.3 LineCode=350_CLP_3PH_12KV_3 Length=0.002478 units=km
New Line.ND84566435$B5405022-2 phases=1 Bus1=84566435.1 Bus2=28190721.1 LineCode=1/0_CLP_1PH_12KV_1 Length=0.167946 units=km
New Line.169710768$P5421046-1 phases=3 Bus1=169710771.1.2.3 Bus2=28192779.1.2.3 LineCode=1/0_CLP_3PH_12KV_3 Length=0.002335 units=km
New Line.28227089$J215A-2P phases=1 Bus1=28227092.2 Bus2=28193354.2 LineCode=1/0_CLP_1PH_12KV_1 Length=0.004013 units=km
New Line.28228022$90647323 phases=3 Bus1=90647294.1.2.3 Bus2=28228024.1.2.3 LineCode=2_CLP_3PH_12KV_3 Length=0.091961 units=km
New Line.ND84566466$ND28228332 phases=1 Bus1=84566466.3 Bus2=28228332.3 LineCode=1/0_CLP_1PH_12KV_1 Length=0.003182 units=km
New Line.ND28228640$ND84566435 phases=1 Bus1=84566435.1 Bus2=28228640.1 LineCode=1/0_CLP_1PH_12KV_1 Length=0.303243 units=km
New Line.148120263$P5412293-2 phases=1 Bus1=148120266.2 Bus2=29949963.2 LineCode=750_JCN_1PH_12KV_1 Length=0.006875 units=km
New Line.190596484$P5412290-2 phases=1 Bus1=190596487.2 Bus2=29950107.2 LineCode=750_JCN_1PH_12KV_1 Length=0.001564 units=km
New Line.B5420892-2$ND30070111 phases=1 Bus1=30070111.1 Bus2=29976643.1 LineCode=1/0_CLP_1PH_12KV_1 Length=0.187711 units=km
New Line.B5420890-1$ND30070111 phases=1 Bus1=30070111.1 Bus2=29976778.1 LineCode=1/0_CLP_1PH_12KV_1 Length=0.150969 units=km
New Line.B5421008-2$B5421007-1 phases=1 Bus1=30008248.3 Bus2=30008185.3 LineCode=1/0_CLP_1PH_12KV_1 Length=0.095488 units=km
New Line.P5434216-2$93132651 phases=1 Bus1=30034459.1 Bus2=93132654.1 LineCode=1/0_CLP_1PH_12KV_1 Length=0.000882 units=km
New Line.0208315$PME4312-1 phases=3 Bus1=29948481.1.2.3 Bus2=186248729.1.2.3 LineCode=1/0_JCN_3PH_12KV_3 Length=0.153683 units=km
New Line.190596357$J448A-4P phases=3 Bus1=30036445.1.2.3 Bus2=190596360.1.2.3 LineCode=1/0_JCN_3PH_12KV_3 Length=0.001537 units=km
New Line.91220216$J859A-1P phases=3 Bus1=91220219.1.2.3 Bus2=30035209.1.2.3 LineCode=1/0_CLP_3PH_12KV_3 Length=0.001109 units=km
New Line.J448-2P$30069414 phases=3 Bus1=30036453.1.2.3 Bus2=30069417.1.2.3 LineCode=350_CLP_3PH_12KV_3 Length=0.001468 units=km
New Line.142273425$PME4881-3 phases=3 Bus1=30033734.1.2.3 Bus2=142273427.1.2.3 LineCode=1/0_CLP_3PH_12KV_3 Length=0.028472 units=km
New Line.91220321$ND164105621 phases=3 Bus1=91220324.1.2.3 Bus2=164105621.1.2.3 LineCode=1/0_CLP_3PH_12KV_3 Length=0.006347 units=km
New Line.169710808$ND28228640 phases=1 Bus1=28228640.1 Bus2=169710810.1 LineCode=1/0_CLP_1PH_12KV_1 Length=0.187675 units=km
New Line.182015304$P5656443-2 phases=1 Bus1=182015307.1 Bus2=182014975.1 LineCode=1/0_JCN_1PH_12KV_1 Length=0.000888 units=km
New Line.182015347$P5656445-1 phases=1 Bus1=182015350.1 Bus2=182015116.1 LineCode=1/0_JCN_1PH_12KV_1 Length=0.000995 units=km
New Line.B5405281-1$ND28228640 phases=1 Bus1=28228640.1 Bus2=28190784.1 LineCode=1/0_CLP_1PH_12KV_1 Length=0.100299 units=km
New Line.B5412420-2$ND177029658 phases=1 Bus1=177029658.3 Bus2=28191235.3 LineCode=1/0_CLP_1PH_12KV_1 Length=0.036502 units=km
New Line.B5405286-2$ND28228332 phases=1 Bus1=28228332.3 Bus2=28191451.3 LineCode=1/0_CLP_1PH_12KV_1 Length=0.208611 units=km
New Line.J274A-2P$B5410275-1 phases=1 Bus1=29950185.2 Bus2=29949522.2 LineCode=1/0_CLP_1PH_12KV_1 Length=0.118525 units=km
New Line.PME4312-2$ND164642451 phases=3 Bus1=29948472.1.2.3 Bus2=164642451.1.2.3 LineCode=1/0_CLP_3PH_12KV_3 Length=0.287439 units=km
New Line.J706A-2P$J721A-3P phases=3 Bus1=28190488.1.2.3 Bus2=28192640.1.2.3 LineCode=1/0_CLP_3PH_12KV_3 Length=0.148179 units=km
New Line.BS4486-1$ND285670923 phases=1 Bus1=30036381.2 Bus2=285670923.2 LineCode=1/0_CLP_1PH_12KV_1 Length=0.004532 units=km
New Line.PME4881-2$0004882 phases=3 Bus1=30033743.1.2.3 Bus2=30069456.1.2.3 LineCode=1/0_CLP_3PH_12KV_3 Length=0.009727 units=km
New Line.PME4312-3$71397617 phases=3 Bus1=29948454.1.2.3 Bus2=71397620.1.2.3 LineCode=750_JCN_3PH_12KV_3 Length=0.002181 units=km
New Line.91220151$J448-1P phases=3 Bus1=30036429.1.2.3 Bus2=91220154.1.2.3 LineCode=350_CLP_3PH_12KV_3 Length=0.001314 units=km
New Line.P5433816-A$P5433815-B phases=3 Bus1=162167227.1.2.3 Bus2=162167316.1.2.3 LineCode=350_CLP_3PH_12KV_3 Length=0.138034 units=km
New Line.GS5248-2$ND164105466 phases=3 Bus1=30067948.1.2.3 Bus2=164105466.1.2.3 LineCode=2_CLP_3PH_12KV_3 Length=0.043627 units=km
New Line.ND164642451$169094004 phases=3 Bus1=164642451.1.2.3 Bus2=169094006.1.2.3 LineCode=1/0_CLP_3PH_12KV_3 Length=0.007975 units=km
New Line.190596416$190596357 phases=3 Bus1=190596359.1.2.3 Bus2=190596418.1.2.3 LineCode=1/0_JCN_3PH_12KV_3 Length=0.121431 units=km
New Line.ND285670923$M5386100 phases=1 Bus1=285670923.2 Bus2=285670898.2 LineCode=1/0_JCN_1PH_12KV_1 Length=0.003752 units=km
New Line.30069414$30069169 phases=3 Bus1=30069416.1.2.3 Bus2=30069171.1.2.3 LineCode=350_CLP_3PH_12KV_3 Length=0.178404 units=km
New Line.ND285670923$ND30070369 phases=1 Bus1=285670923.2 Bus2=30070369.2 LineCode=1/0_CLP_1PH_12KV_1 Length=0.005221 units=km
New Line.ND30118915$ND164642451 phases=3 Bus1=164642451.1.2.3 Bus2=30118915.1.2.3 LineCode=1/0_CLP_3PH_12KV_3 Length=0.36047 units=km
New Line.J706A-3P$P5401706 phases=1 Bus1=28190480.1 Bus2=84566364.1 LineCode=2_CLP_1PH_12KV_1 Length=0.011379 units=km
New Line.142273425$ND142273476 phases=3 Bus1=142273428.1.2.3 Bus2=142273458.1.2.3 LineCode=1/0_CLP_3PH_12KV_3 Length=0.005279 units=km
New Line.164105551$GS5248-3 phases=3 Bus1=30067964.1.2.3 Bus2=164105553.1.2.3 LineCode=1/0_JCN_3PH_12KV_3 Length=0.227447 units=km
New Line.ND30118915$164642152 phases=3 Bus1=30118915.1.2.3 Bus2=164642154.1.2.3 LineCode=1/0_CLP_3PH_12KV_3 Length=0.010083 units=km
New Line.ND30070369$ND30033672 phases=1 Bus1=30070369.2 Bus2=30033650.2 LineCode=1/0_CLP_1PH_12KV_1 Length=0.101893 units=km
New Line.ND30118915$P5421139-1 phases=3 Bus1=30118915.1.2.3 Bus2=30034738.1.2.3 LineCode=2_CLP_3PH_12KV_3 Length=0.474466 units=km
New Line.B5420965-2$B5420966-1 phases=1 Bus1=29949603.3 Bus2=29950438.3 LineCode=1/0_CLP_1PH_12KV_1 Length=0.116098 units=km
New Line.179095119$179095086 phases=3 Bus1=179095088.1.2.3 Bus2=179095121.1.2.3 LineCode=1/0_JCN_3PH_12KV_3 Length=0.075044 units=km
New Line.28228022$P5491591 phases=3 Bus1=28228025.1.2.3 Bus2=28226441.1.2.3 LineCode=2_CLP_3PH_12KV_3 Length=0.005008 units=km
New Line.J274A-3P$B5410276-2 phases=1 Bus1=29950177.2 Bus2=29976427.2 LineCode=1/0_CLP_1PH_12KV_1 Length=0.051857 units=km
New Line.B5412599-2$B5412600-1 phases=1 Bus1=29977003.3 Bus2=29976706.3 LineCode=1/0_CLP_1PH_12KV_1 Length=0.116319 units=km
New Line.B5412690-1$B5412691-1 phases=1 Bus1=29977066.3 Bus2=29977138.3 LineCode=1/0_CLP_1PH_12KV_1 Length=0.17244 units=km
New Line.ND164105621$30035711 phases=3 Bus1=164105621.1.2.3 Bus2=30035713.1.2.3 LineCode=2_CLP_3PH_12KV_3 Length=0.013766 units=km
New Line.30068680$204734131 phases=3 Bus1=204734133.1.2.3 Bus2=30068682.1.2.3 LineCode=350_CLP_3PH_12KV_3 Length=0.096763 units=km
New Line.30069189$ND164105621 phases=3 Bus1=164105621.1.2.3 Bus2=30069192.1.2.3 LineCode=2_CLP_3PH_12KV_3 Length=0.005351 units=km
New Line.93132651$303843467 phases=1 Bus1=93132653.1 Bus2=303843469.1 LineCode=1/0_CLP_1PH_12KV_1 Length=0.146171 units=km
New Line.P5412293-1$148120236 phases=1 Bus1=29949954.2 Bus2=148120239.2 LineCode=750_JCN_1PH_12KV_1 Length=0.006055 units=km
New Line.91220151$30069424 phases=3 Bus1=91220153.1.2.3 Bus2=30069426.1.2.3 LineCode=350_CLP_3PH_12KV_3 Length=0.118823 units=km
New Line.S5440371$ND164105466 phases=3 Bus1=164105466.1.2.3 Bus2=30069656.1.2.3 LineCode=2_CLP_3PH_12KV_3 Length=0.005222 units=km
New Line.71397617$ND30070733 phases=3 Bus1=71397619.1.2.3 Bus2=30070733.1.2.3 LineCode=750_JCN_3PH_12KV_3 Length=0.006847 units=km
New Line.ND30070369$J407A-1P phases=1 Bus1=30070369.2 Bus2=72626563.2 LineCode=1/0_CLP_1PH_12KV_1 Length=0.122122 units=km
New Line.90647107$ND164105466 phases=3 Bus1=164105466.1.2.3 Bus2=90647109.1.2.3 LineCode=2_CLP_3PH_12KV_3 Length=0.198336 units=km
New Line.ND30070733$144055222 phases=1 Bus1=30070733.3 Bus2=144055224.3 LineCode=750_JCN_1PH_12KV_1 Length=0.007816 units=km
New Line.P5663743-1$190596416 phases=3 Bus1=190596419.1.2.3 Bus2=190596297.1.2.3 LineCode=1/0_JCN_3PH_12KV_3 Length=0.001855 units=km
New Line.J859A-2P$191166006 phases=3 Bus1=30035225.1.2.3 Bus2=191166009.1.2.3 LineCode=1/0_JCN_3PH_12KV_3 Length=0.000978 units=km
New Line.169094004$PME4341-4 phases=3 Bus1=169094007.1.2.3 Bus2=29949177.1.2.3 LineCode=1/0_CLP_3PH_12KV_3 Length=0.00308 units=km
New Line.P5412290-1$190596511 phases=1 Bus1=29950098.2 Bus2=190596514.2 LineCode=750_JCN_1PH_12KV_1 Length=0.064642 units=km
New Line.P5656446-1$196537228 phases=1 Bus1=196536815.1 Bus2=196537231.1 LineCode=1/0_JCN_1PH_12KV_1 Length=0.000534 units=km
New Line.B5454415-1$B5405022-1 phases=1 Bus1=28190712.1 Bus2=28193043.1 LineCode=1/0_CLP_1PH_12KV_1 Length=0.110375 units=km
New Line.P5470448-1$169710808 phases=1 Bus1=169710811.1 Bus2=28213548.1 LineCode=1/0_CLP_1PH_12KV_1 Length=0.003366 units=km
New Line.B5420890-2$B5420891-1 phases=1 Bus1=29976787.1 Bus2=29976562.1 LineCode=1/0_CLP_1PH_12KV_1 Length=0.211364 units=km
New Line.B5421008-1$B5421009-2 phases=1 Bus1=30008176.3 Bus2=30008113.3 LineCode=1/0_CLP_1PH_12KV_1 Length=0.164945 units=km
New Line.P5657023-A$179095119 phases=3 Bus1=179095122.1.2.3 Bus2=179094830.1.2.3 LineCode=1/0_JCN_3PH_12KV_3 Length=0.001904 units=km
New Line.P5656443-1$182015279 phases=1 Bus1=182014966.1 Bus2=182015282.1 LineCode=1/0_JCN_1PH_12KV_1 Length=0.001353 units=km
New Line.30035711$P5421179-1 phases=3 Bus1=30035714.1.2.3 Bus2=201385169.1.2.3 LineCode=2_CLP_3PH_12KV_3 Length=0.002902 units=km
New Line.B5405286-1$P5405287-1 phases=1 Bus1=28191442.3 Bus2=28191514.3 LineCode=1/0_CLP_1PH_12KV_1 Length=0.139798 units=km
New Line.B5412420-1$ND28228602 phases=1 Bus1=28191226.3 Bus2=28228602.3 LineCode=1/0_CLP_1PH_12KV_1 Length=0.090798 units=km
New Line.B5405281-2$ND28272048 phases=1 Bus1=28190793.1 Bus2=28272048.1 LineCode=2_CLP_1PH_12KV_1 Length=0.099733 units=km
New Line.B5420967-1$B5420966-2 phases=1 Bus1=29950447.3 Bus2=29950510.3 LineCode=1/0_CLP_1PH_12KV_1 Length=0.154276 units=km
New Line.30068680$P5445273-1 phases=3 Bus1=30068683.1.2.3 Bus2=30009079.1.2.3 LineCode=350_CLP_3PH_12KV_3 Length=0.001277 units=km
New Line.303843467$P5434217-1 phases=1 Bus1=303843470.1 Bus2=30034522.1 LineCode=1/0_CLP_1PH_12KV_1 Length=0.000954 units=km
New Line.30035629$30069189 phases=3 Bus1=30069191.1.2.3 Bus2=30035631.1.2.3 LineCode=2_CLP_3PH_12KV_3 Length=0.188393 units=km
New Line.89872705$J215A-1P phases=1 Bus1=28193330.2 Bus2=89872708.2 LineCode=1/0_CLP_1PH_12KV_1 Length=0.002534 units=km
New Line.89872732$J215A-3P phases=1 Bus1=28193338.2 Bus2=89872735.2 LineCode=1/0_CLP_1PH_12KV_1 Length=0.001885 units=km
New Line.190596511$148120182 phases=1 Bus1=190596513.2 Bus2=148120184.2 LineCode=750_JCN_1PH_12KV_1 Length=0.050068 units=km
New Line.148120236$148120209 phases=1 Bus1=148120238.2 Bus2=148120211.2 LineCode=750_JCN_1PH_12KV_1 Length=0.079644 units=km
New Line.196537228$196537260 phases=1 Bus1=196537230.1 Bus2=196537262.1 LineCode=1/0_JCN_1PH_12KV_1 Length=0.025974 units=km
New Line.B5412300-1$ND28272048 phases=1 Bus1=28272048.1 Bus2=28190856.1 LineCode=2_CLP_1PH_12KV_1 Length=0.07957 units=km
New Line.B5412299-2$ND28272048 phases=1 Bus1=28272048.1 Bus2=28191009.1 LineCode=2_CLP_1PH_12KV_1 Length=0.065108 units=km
New Line.B5412478-2$ND28228602 phases=1 Bus1=28228602.3 Bus2=28191307.3 LineCode=1/0_CLP_1PH_12KV_1 Length=0.069048 units=km
New Line.B5412477-2$ND28228602 phases=1 Bus1=28228602.3 Bus2=28191379.3 LineCode=1/0_CLP_1PH_12KV_1 Length=0.095878 units=km
New Line.30069169$ND30035154 phases=3 Bus1=30069172.1.2.3 Bus2=30035132.1.2.3 LineCode=350_CLP_3PH_12KV_3 Length=0.008695 units=km
New Line.PME4695-1$GS5248-4 phases=3 Bus1=30067972.1.2.3 Bus2=30067640.1.2.3 LineCode=350_CLP_3PH_12KV_3 Length=0.198765 units=km
New Line.ND30070733$ND71397555 phases=2 Bus1=30070733.1.2 Bus2=71397555.1.2 LineCode=750_JCN_2PH_12KV_2 Length=0.287439 units=km
New Line.P5433817-A$P5433816-B phases=3 Bus1=162167299.1.2.3 Bus2=162167405.1.2.3 LineCode=350_CLP_3PH_12KV_3 Length=0.162233 units=km
New Line.30069424$P5445271-A phases=3 Bus1=30069427.1.2.3 Bus2=162167511.1.2.3 LineCode=350_CLP_3PH_12KV_3 Length=0.001975 units=km
New Line.164105551$P5632625-1 phases=3 Bus1=164105554.1.2.3 Bus2=164105507.1.2.3 LineCode=1/0_JCN_3PH_12KV_3 Length=0.002152 units=km
New Line.ND182014900$90647107 phases=3 Bus1=90647110.1.2.3 Bus2=182014900.1.2.3 LineCode=2_CLP_3PH_12KV_3 Length=0.005844 units=km
New Line.28227119$J721A-2P phases=3 Bus1=28192648.1.2.3 Bus2=28227121.1.2.3 LineCode=1/0_CLP_3PH_12KV_3 Length=0.158666 units=km
New Line.164642152$PME4342-4 phases=3 Bus1=164642155.1.2.3 Bus2=29949037.1.2.3 LineCode=1/0_CLP_3PH_12KV_3 Length=0.000336 units=km
New Line.B5410276-1$B5410277-2 phases=1 Bus1=29976418.2 Bus2=29949675.2 LineCode=1/0_CLP_1PH_12KV_1 Length=0.146131 units=km
New Line.B5412690-2$ND30118264 phases=1 Bus1=29977147.3 Bus2=30118264.3 LineCode=1/0_CLP_1PH_12KV_1 Length=0.007155 units=km
New Line.89872678$J215A-4P phases=1 Bus1=28193346.2 Bus2=89872681.2 LineCode=1/0_CLP_1PH_12KV_1 Length=0.002125 units=km
New Line.30035629$P5472632-1 phases=3 Bus1=30035632.1.2.3 Bus2=164105644.1.2.3 LineCode=2_CLP_3PH_12KV_3 Length=0.002675 units=km
New Line.182015279$182015254 phases=1 Bus1=182015281.1 Bus2=182015256.1 LineCode=1/0_JCN_1PH_12KV_1 Length=0.087743 units=km
New Line.B5420863-2$89872732 phases=1 Bus1=89872734.2 Bus2=28191081.2 LineCode=1/0_CLP_1PH_12KV_1 Length=0.165903 units=km
New Line.B5405214-2$89872705 phases=1 Bus1=89872707.2 Bus2=28191163.2 LineCode=1/0_CLP_1PH_12KV_1 Length=0.0568 units=km
New Line.B5454416-1$B5454415-2 phases=1 Bus1=28193052.1 Bus2=28193115.1 LineCode=1/0_CLP_1PH_12KV_1 Length=0.119235 units=km
New Line.B5421010-2$B5421009-1 phases=1 Bus1=30008104.3 Bus2=30008041.3 LineCode=1/0_CLP_1PH_12KV_1 Length=0.144377 units=km
New Line.B5420882-1$ND30118264 phases=1 Bus1=30118264.3 Bus2=30034018.3 LineCode=1/0_CLP_1PH_12KV_1 Length=0.138812 units=km
New Line.B5420881-1$ND30118264 phases=1 Bus1=30118264.3 Bus2=30034090.3 LineCode=1/0_CLP_1PH_12KV_1 Length=0.097386 units=km
New Line.P5657023-B$179095146 phases=3 Bus1=179094848.1.2.3 Bus2=179095149.1.2.3 LineCode=1/0_JCN_3PH_12KV_3 Length=0.002632 units=km
New Line.RCS4301-4$ND148530569 phases=3 Bus1=148530569.1.2.3 Bus2=29979463.1.2.3 LineCode=1000_JCN_3PH_12KV_3 Length=0.694395 units=km
New Line.ND148530569$ND30070004 phases=3 Bus1=148530569.1.2.3 Bus2=30070004.1.2.3 LineCode=750_CLP_ABC_12_3 Length=0.275434 units=km
New Line.91220176$ND190596263 phases=3 Bus1=190596263.1.2.3 Bus2=91220178.1.2.3 LineCode=350_CLP_ABC_12_3 Length=0.031475 units=km
New Line.196537260$P5656447-2 phases=1 Bus1=196537263.1 Bus2=196536892.1 LineCode=1/0_JCN_1PH_12KV_1 Length=0.003304 units=km
New Line.B5405288-1$P5405287-2 phases=1 Bus1=28191523.3 Bus2=28191586.3 LineCode=1/0_CLP_1PH_12KV_1 Length=0.171704 units=km
New Line.B5454417-2$89872678 phases=1 Bus1=89872680.2 Bus2=28193268.2 LineCode=1/0_CLP_1PH_12KV_1 Length=0.044877 units=km
New Line.148120182$P5412291-2 phases=1 Bus1=148120185.2 Bus2=29949315.2 LineCode=750_JCN_1PH_12KV_1 Length=0.000842 units=km
New Line.148120209$P5412294-2 phases=1 Bus1=148120212.2 Bus2=29949387.2 LineCode=750_JCN_1PH_12KV_1 Length=0.003978 units=km
New Line.B5420967-2$B5420968-2 phases=1 Bus1=29950519.3 Bus2=29949819.3 LineCode=1/0_CLP_1PH_12KV_1 Length=0.162747 units=km
New Line.P5434217-2$303843440 phases=1 Bus1=30034531.1 Bus2=303843443.1 LineCode=1/0_CLP_1PH_12KV_1 Length=0.159346 units=km
New Line.ND30035154$30069149 phases=3 Bus1=30035132.1.2.3 Bus2=30069152.1.2.3 LineCode=350_CLP_3PH_12KV_3 Length=0.008822 units=km
New Line.J859A-3P$30069219 phases=3 Bus1=30035217.1.2.3 Bus2=30069222.1.2.3 LineCode=1/0_CLP_3PH_12KV_3 Length=0.00131 units=km
New Line.ND71397555$ND71397597 phases=1 Bus1=71397555.2 Bus2=71397597.2 LineCode=750_JCN_1PH_12KV_1 Length=0.00987 units=km
New Line.ND71397597$148120128 phases=1 Bus1=71397597.2 Bus2=148120130.2 LineCode=750_JCN_1PH_12KV_1 Length=0.08263 units=km
New Line.ND71397597$148120322 phases=1 Bus1=71397597.2 Bus2=148120324.2 LineCode=750_JCN_1PH_12KV_1 Length=0.127315 units=km
New Line.ND182014900$182015197 phases=1 Bus1=182014900.1 Bus2=182015199.1 LineCode=1/0_JCN_1PH_12KV_1 Length=0.167259 units=km
New Line.191166006$PME6610-1 phases=3 Bus1=191166008.1.2.3 Bus2=191165768.1.2.3 LineCode=1/0_JCN_3PH_12KV_3 Length=0.170386 units=km
New Line.J721A-1P$239336784 phases=3 Bus1=28192632.1.2.3 Bus2=239336786.1.2.3 LineCode=1/0_CLP_3PH_12KV_3 Length=0.010766 units=km
New Line.182015254$P5656444-2 phases=1 Bus1=182015257.1 Bus2=182015050.1 LineCode=1/0_JCN_1PH_12KV_1 Length=0.001811 units=km
New Line.B5412301-1$B5412300-2 phases=1 Bus1=28190865.1 Bus2=28190928.1 LineCode=2_CLP_1PH_12KV_1 Length=0.131852 units=km
New Line.144055222$P5405234 phases=1 Bus1=144055225.3 Bus2=30068554.3 LineCode=750_JCN_1PH_12KV_1 Length=0.000368 units=km
New Line.90647134$ND182014900 phases=3 Bus1=182014900.1.2.3 Bus2=90647137.1.2.3 LineCode=2_CLP_3PH_12KV_3 Length=0.007688 units=km
New Line.PME4341-2$169094101 phases=1 Bus1=29949187.2 Bus2=169094104.2 LineCode=1/0_CLP_1PH_12KV_1 Length=0.002542 units=km
New Line.28227119$J045A-1P phases=3 Bus1=28227122.1.2.3 Bus2=28226461.1.2.3 LineCode=1/0_CLP_3PH_12KV_3 Length=0.001396 units=km
New Line.179095146$179095176 phases=3 Bus1=179095148.1.2.3 Bus2=179095178.1.2.3 LineCode=1/0_JCN_3PH_12KV_3 Length=0.11669 units=km
New Line.B5405214-1$28191138 phases=1 Bus1=28191154.2 Bus2=28191140.2 LineCode=1/0_CLP_1PH_12KV_1 Length=0.097718 units=km
New Line.303843499$303843440 phases=1 Bus1=303843442.1 Bus2=303843501.1 LineCode=1/0_CLP_1PH_12KV_1 Length=0.170693 units=km
New Line.P5656447-1$196537174 phases=1 Bus1=196536883.1 Bus2=196537177.1 LineCode=1/0_JCN_1PH_12KV_1 Length=0.001086 units=km
New Line.B5455454-2$B5454417-1 phases=1 Bus1=28193259.2 Bus2=28193911.2 LineCode=1/0_CLP_1PH_12KV_1 Length=0.168052 units=km
New Line.14406$ND143741853 phases=3 Bus1=-8888882180114.1.2.3 Bus2=143741853.1.2.3 LineCode=1000_JCN_3PH_12KV_3 Length=0.422333 units=km
New Line.J861A-1P$30069219 phases=3 Bus1=30069221.1.2.3 Bus2=30035403.1.2.3 LineCode=1/0_CLP_3PH_12KV_3 Length=0.052736 units=km
New Line.30069149$30069159 phases=3 Bus1=30069151.1.2.3 Bus2=30069161.1.2.3 LineCode=350_CLP_3PH_12KV_3 Length=0.126989 units=km
New Line.72628420$J407A-2P phases=1 Bus1=72626579.2 Bus2=72628422.2 LineCode=2_CLP_1PH_12KV_1 Length=0.058795 units=km
New Line.90646997$PME4695-4 phases=3 Bus1=30067622.1.2.3 Bus2=90646999.1.2.3 LineCode=1/0_JCN_3PH_12KV_3 Length=0.262847 units=km
New Line.141796974$90647134 phases=3 Bus1=90647136.1.2.3 Bus2=141796976.1.2.3 LineCode=2_CLP_3PH_12KV_3 Length=0.167216 units=km
New Line.PME4342-2$164642297 phases=1 Bus1=29949047.2 Bus2=164642300.2 LineCode=1/0_CLP_1PH_12KV_1 Length=0.003175 units=km
New Line.PME4341-3$169094031 phases=1 Bus1=29949196.1 Bus2=169094034.1 LineCode=1/0_CLP_1PH_12KV_1 Length=0.000264 units=km
New Line.PME4341-1$169094066 phases=1 Bus1=29949205.3 Bus2=169094069.3 LineCode=1/0_CLP_1PH_12KV_1 Length=0.004018 units=km
New Line.182015197$FC6241-1 phases=1 Bus1=182015200.1 Bus2=182014917.1 LineCode=1/0_JCN_1PH_12KV_1 Length=0.002486 units=km
New Line.P5445271-B$193441563 phases=3 Bus1=162167529.1.2.3 Bus2=193441566.1.2.3 LineCode=350_CLP_3PH_12KV_3 Length=0.157549 units=km
New Line.239336784$PME4325-4 phases=3 Bus1=239336787.1.2.3 Bus2=28190583.1.2.3 LineCode=1/0_CLP_3PH_12KV_3 Length=0.000839 units=km
New Line.P5412292-2$148120322 phases=1 Bus1=148120325.2 Bus2=29949891.2 LineCode=750_JCN_1PH_12KV_1 Length=0.00449 units=km
New Line.148120128$P5412289-2 phases=1 Bus1=148120131.2 Bus2=29950035.2 LineCode=750_JCN_1PH_12KV_1 Length=0.002013 units=km
New Line.P5433817-B$P5433818-1 phases=3 Bus1=162167388.1.2.3 Bus2=30009127.1.2.3 LineCode=350_CLP_3PH_12KV_3 Length=0.018089 units=km
New Line.J407A-3P$72626999 phases=1 Bus1=72626571.2 Bus2=72627001.2 LineCode=2_CLP_1PH_12KV_1 Length=0.107689 units=km
New Line.PME4695-3$ND98843336 phases=3 Bus1=30067613.1.2.3 Bus2=98843336.1.2.3 LineCode=350_CLP_3PH_12KV_3 Length=0.015453 units=km