! OpenDSS script generated from multiconductor network
Clear

New Circuit.mc_network basekv=12.0 pu=1.000000 angle=0.00 frequency=60.0 phases=3 Mvasc3=143993 Mvasc1=47997.6
~ bus1=-8888882184485.1.2.3

! Line codes
New LineCode.653_ACSR_3PH_653_ACSR_N_12KV_4 nphases=4 units=km Rmatrix=[ 0.003549 | 0 0.003549 | 0 0 0.003549 | 0 0 0 0.003549 ] Xmatrix=[ 0.012067 | 0 0.012067 | 0 0 0.012067 | 0 0 0 0.012067 ] Cmatrix=[ 0 | 0 0 | 0 0 0 | 0 0 0 0 ]
New LineCode.1/0_CLP_3PH_12KV_3 nphases=3 units=km Rmatrix=[ 0.157324 | 0 0.157324 | 0 0 0.157324 ] Xmatrix=[ 0.048086 | 0 0.048086 | 0 0 0.048086 ] Cmatrix=[ 0 | 0 0 | 0 0 0 ]
New LineCode.2_CLP_1PH_12KV_1 nphases=1 units=km Rmatrix=[ 0.066465 ] Xmatrix=[ 0.01401 ] Cmatrix=[ 0 ]
New LineCode.1/0_CLP_1PH_12KV_1 nphases=1 units=km Rmatrix=[ 0.007705 ] Xmatrix=[ 0.002355 ] Cmatrix=[ 0 ]
New LineCode.2_CLP_3PH_12KV_3 nphases=3 units=km Rmatrix=[ 0.003121 | 0 0.003121 | 0 0 0.003121 ] Xmatrix=[ 0.000658 | 0 0.000658 | 0 0 0.000658 ] Cmatrix=[ 0 | 0 0 | 0 0 0 ]
New LineCode.350_CLP_3PH_12KV_3 nphases=3 units=km Rmatrix=[ 0.102131 | 0 0.102131 | 0 0 0.102131 ] Xmatrix=[ 0.077598 | 0 0.077598 | 0 0 0.077598 ] Cmatrix=[ 0 | 0 0 | 0 0 0 ]
New LineCode.954_ACSR_3PH_12KV_3 nphases=3 units=km Rmatrix=[ 1e-05 | 0 1e-05 | 0 0 1e-05 ] Xmatrix=[ 1e-05 | 0 1e-05 | 0 0 1e-05 ] Cmatrix=[ 0 | 0 0 | 0 0 0 ]
New LineCode.1000_CLP_3PH_12KV_3 nphases=3 units=km Rmatrix=[ 0.000571 | 0 0.000571 | 0 0 0.000571 ] Xmatrix=[ 0.000865 | 0 0.000865 | 0 0 0.000865 ] Cmatrix=[ 0 | 0 0 | 0 0 0 ]
New LineCode.1/0_JCN_3PH_12KV_3 nphases=3 units=km Rmatrix=[ 0.002224 | 0 0.002224 | 0 0 0.002224 ] Xmatrix=[ 0.00068 | 0 0.00068 | 0 0 0.00068 ] Cmatrix=[ 0 | 0 0 | 0 0 0 ]
New LineCode.1000_JCN_3PH_12KV_3 nphases=3 units=km Rmatrix=[ 0.036245 | 0 0.036245 | 0 0 0.036245 ] Xmatrix=[ 0.054864 | 0 0.054864 | 0 0 0.054864 ] Cmatrix=[ 0 | 0 0 | 0 0 0 ]

! Lines
New Line.1780569E$588E phases=4 Bus1=180009713.0.1.2.3 Bus2=33700914.0.1.2.3 LineCode=653_ACSR_3PH_653_ACSR_N_12KV_4 Length=0.040295 units=km
New Line.1780569E$ND166783976 phases=4 Bus1=33700913.0.1.2.3 Bus2=166783976.0.1.2.3 LineCode=653_ACSR_3PH_653_ACSR_N_12KV_4 Length=0.188606 units=km
New Line.ND166783976$4105726E phases=4 Bus1=166783976.0.1.2.3 Bus2=33608761.0.1.2.3 LineCode=653_ACSR_3PH_653_ACSR_N_12KV_4 Length=0.034741 units=km
New Line.ND200729188$N53864 phases=3 Bus1=200729188.1.2.3 Bus2=-777777200729188.1.2.3 LineCode=1/0_CLP_3PH_12KV_3 Length=0.054049 units=km
New Line.P5392193-1$P5392192-1 phases=1 Bus1=33637225.2 Bus2=33671954.2 LineCode=2_CLP_1PH_12KV_1 Length=0.169307 units=km
New Line.ND33702324$P5400632-1 phases=1 Bus1=33702324.1 Bus2=33699859.1 LineCode=1/0_CLP_1PH_12KV_1 Length=0.051829 units=km
New Line.176565258$ND33701576 phases=1 Bus1=176565260.2 Bus2=33701576.2 LineCode=1/0_CLP_1PH_12KV_1 Length=0.078482 units=km
New Line.176565233$ND33701576 phases=1 Bus1=33701576.2 Bus2=176565235.2 LineCode=1/0_CLP_1PH_12KV_1 Length=0.008087 units=km
New Line.199946893$PME4617-3 phases=3 Bus1=33700009.1.2.3 Bus2=199946896.1.2.3 LineCode=2_CLP_3PH_12KV_3 Length=0.001538 units=km
New Line.P5397663-1$P5397662-1 phases=1 Bus1=33636671.1 Bus2=33636743.1 LineCode=2_CLP_1PH_12KV_1 Length=0.208854 units=km
New Line.P5392199-2$P5392198-1 phases=1 Bus1=33637513.3 Bus2=33637594.3 LineCode=2_CLP_1PH_12KV_1 Length=0.138065 units=km
New Line.P5400641-1$ND33702103 phases=1 Bus1=33702103.1 Bus2=33699571.1 LineCode=1/0_CLP_1PH_12KV_1 Length=0.074782 units=km
New Line.P5400642-1$ND33702103 phases=1 Bus1=33702103.1 Bus2=33699715.1 LineCode=1/0_CLP_1PH_12KV_1 Length=0.034198 units=km
New Line.P5414182-2$172919995 phases=1 Bus1=33673456.1 Bus2=172919998.1 LineCode=2_CLP_1PH_12KV_1 Length=0.006941 units=km
New Line.P5336608-2$183433615 phases=1 Bus1=55201963.2 Bus2=183433618.2 LineCode=2_CLP_1PH_12KV_1 Length=0.001136 units=km
New Line.P5391931-1$186380607 phases=1 Bus1=55202317.2 Bus2=186380610.2 LineCode=2_CLP_1PH_12KV_1 Length=0.126502 units=km
New Line.169505311$P5392190-1 phases=1 Bus1=169505313.1 Bus2=33637297.1 LineCode=2_CLP_1PH_12KV_1 Length=0.187503 units=km
New Line.P5391826-1$P5391827-2 phases=1 Bus1=33669570.3 Bus2=33669633.3 LineCode=2_CLP_1PH_12KV_1 Length=0.100655 units=km
New Line.P5414174-1$235954419 phases=1 Bus1=235954422.2 Bus2=33673015.2 LineCode=2_CLP_1PH_12KV_1 Length=0.00156 units=km
New Line.P5391812-2$P5391811-1 phases=1 Bus1=55201738.1 Bus2=55202107.1 LineCode=2_CLP_1PH_12KV_1 Length=0.181371 units=km
New Line.183433680$183433615 phases=1 Bus1=183433617.2 Bus2=183433682.2 LineCode=2_CLP_1PH_12KV_1 Length=0.075406 units=km
New Line.186380607$226027747 phases=1 Bus1=186380609.2 Bus2=226027749.2 LineCode=2_CLP_1PH_12KV_1 Length=0.063757 units=km
New Line.P5400642-2$P5400643-1 phases=1 Bus1=33699724.1 Bus2=33699643.1 LineCode=1/0_CLP_1PH_12KV_1 Length=0.110407 units=km
New Line.P5414175-1$ND33702174 phases=1 Bus1=33672943.2 Bus2=33702174.2 LineCode=2_CLP_1PH_12KV_1 Length=0.063429 units=km
New Line.ND33702184$172919995 phases=1 Bus1=172919997.1 Bus2=33702184.1 LineCode=2_CLP_1PH_12KV_1 Length=0.110159 units=km
New Line.217668514$ND33702174 phases=1 Bus1=33702174.2 Bus2=217668516.2 LineCode=2_CLP_1PH_12KV_1 Length=0.108184 units=km
New Line.P5391826-2$P5391825-1 phases=1 Bus1=33669642.3 Bus2=33669489.3 LineCode=2_CLP_1PH_12KV_1 Length=0.112139 units=km
New Line.P5414185-1$ND33702184 phases=1 Bus1=33702184.1 Bus2=33673303.1 LineCode=2_CLP_1PH_12KV_1 Length=0.132305 units=km
New Line.P5414184-1$ND33702184 phases=1 Bus1=33702184.1 Bus2=33673375.1 LineCode=2_CLP_1PH_12KV_1 Length=0.110419 units=km
New Line.P5414178-2$ND33702174 phases=1 Bus1=33702174.2 Bus2=33700374.2 LineCode=2_CLP_1PH_12KV_1 Length=0.147835 units=km
New Line.P5400635-1$185768067 phases=1 Bus1=185768070.1 Bus2=33699787.1 LineCode=1/0_CLP_1PH_12KV_1 Length=0.003204 units=km
New Line.ND33701576$ND33701887 phases=1 Bus1=33701576.2 Bus2=33701887.2 LineCode=1/0_CLP_1PH_12KV_1 Length=0.114301 units=km
New Line.ND55220303$GS4395-4 phases=3 Bus1=235717120.1.2.3 Bus2=55220303.1.2.3 LineCode=350_CLP_3PH_12KV_3 Length=0.008658 units=km
New Line.176565181$ND33701887 phases=1 Bus1=33701887.2 Bus2=176565183.2 LineCode=1/0_CLP_1PH_12KV_1 Length=0.010911 units=km
New Line.176565208$ND33701887 phases=1 Bus1=33701887.2 Bus2=176565210.2 LineCode=1/0_CLP_1PH_12KV_1 Length=0.08218 units=km
New Line.PME4617-4$199946920 phases=3 Bus1=33700018.1.2.3 Bus2=199946923.1.2.3 LineCode=2_CLP_3PH_12KV_3 Length=0.001414 units=km
New Line.P5397657-2$209952778 phases=1 Bus1=209952781.3 Bus2=33636392.3 LineCode=2_CLP_1PH_12KV_1 Length=0.002913 units=km
New Line.P5397652-2$P5397654-2 phases=1 Bus1=33638794.3 Bus2=33638866.3 LineCode=2_CLP_1PH_12KV_1 Length=0.125534 units=km
New Line.ND55219576$ND55220303 phases=3 Bus1=55220303.1.2.3 Bus2=55219576.1.2.3 LineCode=350_CLP_3PH_12KV_3 Length=0.048458 units=km
New Line.ND55220303$ND55220304 phases=1 Bus1=55220303.1 Bus2=55220304.1 LineCode=1/0_CLP_1PH_12KV_1 Length=0.025045 units=km
New Line.P5636606-2$183433680 phases=1 Bus1=183433683.2 Bus2=55201891.2 LineCode=2_CLP_1PH_12KV_1 Length=0.124384 units=km
New Line.226027747$P5391932-2 phases=1 Bus1=226027750.2 Bus2=55202254.2 LineCode=2_CLP_1PH_12KV_1 Length=0.001019 units=km
New Line.P5414177-2$217668514 phases=1 Bus1=217668517.2 Bus2=33672880.2 LineCode=2_CLP_1PH_12KV_1 Length=0.002619 units=km
New Line.P5414185-2$P5414186-1 phases=1 Bus1=33673312.1 Bus2=33673231.1 LineCode=2_CLP_1PH_12KV_1 Length=0.12079 units=km
New Line.P5636606-1$183433655 phases=1 Bus1=55201882.2 Bus2=183433658.2 LineCode=2_CLP_1PH_12KV_1 Length=0.14908 units=km
New Line.P5391932-1$226027722 phases=1 Bus1=55202245.2 Bus2=226027725.2 LineCode=2_CLP_1PH_12KV_1 Length=0.163075 units=km
New Line.226027722$186380632 phases=1 Bus1=226027724.2 Bus2=186380634.2 LineCode=2_CLP_1PH_12KV_1 Length=0.076893 units=km
New Line.183433655$P5391816-2 phases=1 Bus1=183433657.2 Bus2=55201819.2 LineCode=2_CLP_1PH_12KV_1 Length=0.04806 units=km
New Line.186380632$P5391933-2 phases=1 Bus1=186380635.2 Bus2=55202179.2 LineCode=2_CLP_1PH_12KV_1 Length=0.001429 units=km
New Line.P5391816-1$P5391817-1 phases=1 Bus1=55201810.2 Bus2=55202026.2 LineCode=2_CLP_1PH_12KV_1 Length=0.093511 units=km
New Line.186380657$P5391933-1 phases=1 Bus1=55202170.2 Bus2=186380660.2 LineCode=2_CLP_1PH_12KV_1 Length=0.170291 units=km
New Line.226027772$186380657 phases=1 Bus1=186380659.2 Bus2=226027774.2 LineCode=2_CLP_1PH_12KV_1 Length=0.137314 units=km
New Line.P5391934-2$226027772 phases=1 Bus1=226027775.2 Bus2=55202398.2 LineCode=2_CLP_1PH_12KV_1 Length=0.001947 units=km
New Line.PME4388-3$ND172767833 phases=1 Bus1=33639007.3 Bus2=172767833.3 LineCode=2_CLP_1PH_12KV_1 Length=0.004308 units=km
New Line.ND179697440$199946893 phases=3 Bus1=199946895.1.2.3 Bus2=179697440.1.2.3 LineCode=2_CLP_3PH_12KV_3 Length=0.042958 units=km
New Line.185480365$P5622922-2 phases=1 Bus1=33637018.1 Bus2=185480368.1 LineCode=2_CLP_1PH_12KV_1 Length=0.164737 units=km
New Line.P5370682-1$185767777 phases=1 Bus1=33638353.3 Bus2=185767779.3 LineCode=2_CLP_1PH_12KV_1 Length=0.189747 units=km
New Line.P5576100-2$P5370686-2 phases=1 Bus1=33638218.3 Bus2=33638290.3 LineCode=2_CLP_1PH_12KV_1 Length=0.175261 units=km
New Line.P5400638-1$P5400639-2 phases=1 Bus1=33638146.3 Bus2=33638641.3 LineCode=2_CLP_1PH_12KV_1 Length=0.157405 units=km
New Line.P5392193-2$P5392194-2 phases=1 Bus1=33671963.2 Bus2=33671891.2 LineCode=2_CLP_1PH_12KV_1 Length=0.068506 units=km
New Line.P5451882-1$176565233 phases=1 Bus1=176565236.2 Bus2=33672220.2 LineCode=1/0_CLP_1PH_12KV_1 Length=0.001024 units=km
New Line.P5400632-2$P5400633-2 phases=1 Bus1=33699868.1 Bus2=33699508.1 LineCode=1/0_CLP_1PH_12KV_1 Length=0.175939 units=km
New Line.ND55220304$PMS4474-1 phases=1 Bus1=55220304.1 Bus2=55202830.1 LineCode=2_CLP_1PH_12KV_1 Length=0.006044 units=km
New Line.ND55220304$V5370810 phases=1 Bus1=55220304.1 Bus2=55219117.1 LineCode=1/0_CLP_1PH_12KV_1 Length=0.003726 units=km
New Line.ND55219576$ND55219577 phases=1 Bus1=55219576.2 Bus2=55219577.2 LineCode=2_CLP_1PH_12KV_1 Length=0.010907 units=km
New Line.ND55219871$ND55219576 phases=3 Bus1=55219576.1.2.3 Bus2=55219871.1.2.3 LineCode=350_CLP_3PH_12KV_3 Length=0.008088 units=km
New Line.ND55219871$107362861 phases=1 Bus1=55219871.1 Bus2=107362863.1 LineCode=2_CLP_1PH_12KV_1 Length=0.114927 units=km
New Line.ND55219871$PME4389-2 phases=3 Bus1=55219871.1.2.3 Bus2=151638395.1.2.3 LineCode=350_CLP_3PH_12KV_3 Length=0.460573 units=km
New Line.ND55219577$185517352 phases=1 Bus1=55219577.2 Bus2=185517354.2 LineCode=2_CLP_1PH_12KV_1 Length=0.01092 units=km
New Line.185768096$P5400635-2 phases=1 Bus1=33699796.1 Bus2=185768099.1 LineCode=1/0_CLP_1PH_12KV_1 Length=0.079878 units=km
New Line.ND55219577$193337685 phases=1 Bus1=55219577.2 Bus2=193337687.2 LineCode=2_CLP_1PH_12KV_1 Length=0.361138 units=km
New Line.ND183458196$0178053 phases=3 Bus1=183458196.1.2.3 Bus2=155842260.1.2.3 LineCode=954_ACSR_3PH_12KV_3 Length=0.06637 units=km
New Line.P5397664-1$P5397663-2 phases=1 Bus1=33636752.1 Bus2=33636815.1 LineCode=2_CLP_1PH_12KV_1 Length=0.127274 units=km
New Line.P5392200-2$P5392199-1 phases=1 Bus1=33637585.3 Bus2=33637666.3 LineCode=2_CLP_1PH_12KV_1 Length=0.13025 units=km
New Line.P5451883-2$176565181 phases=1 Bus1=176565184.2 Bus2=33672301.2 LineCode=1/0_CLP_1PH_12KV_1 Length=0.000423 units=km
New Line.P5451884-1$176565208 phases=1 Bus1=176565211.2 Bus2=33672364.2 LineCode=1/0_CLP_1PH_12KV_1 Length=0.00225 units=km
New Line.ND179697440$ND33701583 phases=1 Bus1=179697440.2 Bus2=33701583.2 LineCode=2_CLP_1PH_12KV_1 Length=0.098155 units=km
New Line.ND172767833$ND33701830 phases=1 Bus1=172767833.3 Bus2=33701830.3 LineCode=2_CLP_1PH_12KV_1 Length=0.005724 units=km
New Line.199946920$ND33701922 phases=3 Bus1=199946922.1.2.3 Bus2=33701922.1.2.3 LineCode=2_CLP_3PH_12KV_3 Length=0.051988 units=km
New Line.ND179697440$ND95658086 phases=3 Bus1=179697440.1.2.3 Bus2=95658086.1.2.3 LineCode=2_CLP_3PH_12KV_3 Length=0.009507 units=km
New Line.ND33701922$ND157847488 phases=1 Bus1=33701922.1 Bus2=157847488.1 LineCode=2_CLP_1PH_12KV_1 Length=0.135069 units=km
New Line.ND33701922$ND157847508 phases=1 Bus1=33701922.2 Bus2=157847508.2 LineCode=2_CLP_1PH_12KV_1 Length=0.116079 units=km
New Line.P5636584-1$185767777 phases=1 Bus1=185767780.3 Bus2=185767674.3 LineCode=2_CLP_1PH_12KV_1 Length=0.227289 units=km
New Line.209952805$P5397657-1 phases=1 Bus1=33636383.3 Bus2=209952808.3 LineCode=2_CLP_1PH_12KV_1 Length=0.071997 units=km
New Line.ND33701830$226027658 phases=1 Bus1=33701830.3 Bus2=226027660.3 LineCode=2_CLP_1PH_12KV_1 Length=0.301226 units=km
New Line.ND33701583$226027797 phases=1 Bus1=33701583.2 Bus2=226027799.2 LineCode=2_CLP_1PH_12KV_1 Length=0.117607 units=km
New Line.185480365$P5392188-1 phases=1 Bus1=185480367.1 Bus2=33637081.1 LineCode=2_CLP_1PH_12KV_1 Length=0.153401 units=km
New Line.P5397654-1$P5397653-1 phases=1 Bus1=33638857.3 Bus2=33638929.3 LineCode=2_CLP_1PH_12KV_1 Length=0.10227 units=km
New Line.P5400626-2$ND33701583 phases=1 Bus1=33701583.2 Bus2=33672664.2 LineCode=2_CLP_1PH_12KV_1 Length=0.086208 units=km
New Line.ND95658086$P5400625-2 phases=1 Bus1=95658086.1 Bus2=33672808.1 LineCode=2_CLP_1PH_12KV_1 Length=0.07245 units=km
New Line.ND33701830$ND33702790 phases=1 Bus1=33701830.3 Bus2=33702790.3 LineCode=2_CLP_1PH_12KV_1 Length=0.023016 units=km
New Line.P5391823-2$PMS4474-1 phases=1 Bus1=55202831.1 Bus2=55202623.1 LineCode=2_CLP_1PH_12KV_1 Length=0.072811 units=km
New Line.P5400633-1$186459984 phases=1 Bus1=33699499.1 Bus2=186459986.1 LineCode=1/0_CLP_1PH_12KV_1 Length=0.098107 units=km
New Line.P5400638-2$205000624 phases=1 Bus1=33638650.3 Bus2=205000626.3 LineCode=2_CLP_1PH_12KV_1 Length=0.059705 units=km
New Line.226422620$185768096 phases=1 Bus1=185768098.1 Bus2=226422622.1 LineCode=1/0_CLP_1PH_12KV_1 Length=0.073126 units=km
New Line.ND157847508$235954366 phases=1 Bus1=157847508.2 Bus2=235954368.2 LineCode=2_CLP_1PH_12KV_1 Length=0.215766 units=km
New Line.P5392194-1$238926854 phases=1 Bus1=33671882.2 Bus2=238926856.2 LineCode=2_CLP_1PH_12KV_1 Length=0.156656 units=km
New Line.P5400842-2$ND33702790 phases=1 Bus1=33702790.3 Bus2=33669354.3 LineCode=2_CLP_1PH_12KV_1 Length=0.051108 units=km
New Line.P5400843-1$ND33702790 phases=1 Bus1=33702790.3 Bus2=33669417.3 LineCode=2_CLP_1PH_12KV_1 Length=0.174532 units=km
New Line.ND157847488$P5400127-2 phases=1 Bus1=157847488.1 Bus2=33673168.1 LineCode=2_CLP_1PH_12KV_1 Length=0.027356 units=km
New Line.P5414179-1$ND157847488 phases=1 Bus1=157847488.1 Bus2=33699355.1 LineCode=2_CLP_1PH_12KV_1 Length=0.101929 units=km
New Line.ND33701531$GS3544-4 phases=3 Bus1=33701531.1.2.3 Bus2=185194530.1.2.3 LineCode=1000_CLP_3PH_12KV_3 Length=0.036182 units=km
New Line.ND33701531$ND191794160 phases=3 Bus1=33701531.1.2.3 Bus2=191794160.1.2.3 LineCode=1000_CLP_3PH_12KV_3 Length=0.405195 units=km
New Line.ND191794160$GS4421-1 phases=3 Bus1=191794160.1.2.3 Bus2=169198171.1.2.3 LineCode=1000_CLP_3PH_12KV_3 Length=0.092466 units=km
New Line.GS4421-3$J066-1P phases=3 Bus1=169198189.1.2.3 Bus2=170010622.1.2.3 LineCode=1/0_CLP_3PH_12KV_3 Length=0.129417 units=km
New Line.GS3543-1$GS4421-4 phases=3 Bus1=169198198.1.2.3 Bus2=33700624.1.2.3 LineCode=1000_CLP_3PH_12KV_3 Length=0.831181 units=km
New Line.J066-2P$185202951 phases=3 Bus1=170010646.1.2.3 Bus2=185202953.1.2.3 LineCode=1/0_JCN_3PH_12KV_3 Length=0.118618 units=km
New Line.J066-3P$ND170010755 phases=3 Bus1=170010630.1.2.3 Bus2=170010755.1.2.3 LineCode=2_CLP_3PH_12KV_3 Length=0.015621 units=km
New Line.J066-4P$PME4712-1 phases=3 Bus1=170010638.1.2.3 Bus2=169197891.1.2.3 LineCode=1/0_CLP_3PH_12KV_3 Length=0.374773 units=km
New Line.ND170010755$193337724 phases=3 Bus1=170010755.1.2.3 Bus2=193337726.1.2.3 LineCode=1/0_JCN_3PH_12KV_3 Length=0.240742 units=km
New Line.185202951$P5492854-1 phases=3 Bus1=185202954.1.2.3 Bus2=50440347.1.2.3 LineCode=1/0_JCN_3PH_12KV_3 Length=0.003167 units=km
New Line.V5347066T1$ND170010755 phases=1 Bus1=170010755.2 Bus2=50450548.2 LineCode=2_CLP_1PH_12KV_1 Length=0.008663 units=km
New Line.GS3543-3$ND73753965 phases=3 Bus1=33700640.1.2.3 Bus2=73753965.1.2.3 LineCode=1000_CLP_3PH_12KV_3 Length=0.033959 units=km
New Line.ND73753965$ND108660672 phases=3 Bus1=73753965.1.2.3 Bus2=108660672.1.2.3 LineCode=2_CLP_3PH_12KV_3 Length=0.015122 units=km
New Line.588E$GS3543-4 phases=3 Bus1=33700648.1.2.3 Bus2=180009722.1.2.3 LineCode=1000_JCN_3PH_12KV_3 Length=0.363578 units=km
New Line.ND73753965$FC5120-1 phases=1 Bus1=73753965.2 Bus2=33669804.2 LineCode=2_CLP_1PH_12KV_1 Length=0.102879 units=km
New Line.ND108660672$V5347065 phases=1 Bus1=108660672.2 Bus2=108660694.2 LineCode=2_CLP_1PH_12KV_1 Length=0.005184 units=km
New Line.193337724$P5624036-A phases=3 Bus1=193337727.1.2.3 Bus2=170010795.1.2.3 LineCode=1/0_JCN_3PH_12KV_3 Length=0.001891 units=km
New Line.ND108660672$205056351 phases=3 Bus1=108660672.1.2.3 Bus2=205056353.1.2.3 LineCode=2_CLP_3PH_12KV_3 Length=0.083773 units=km
New Line.FC5120-1$ND33702644 phases=1 Bus1=33669805.2 Bus2=33702644.2 LineCode=2_CLP_1PH_12KV_1 Length=0.120107 units=km
New Line.169198609$PME4712-2 phases=3 Bus1=169197882.1.2.3 Bus2=169198612.1.2.3 LineCode=1/0_CLP_3PH_12KV_3 Length=0.003818 units=km
New Line.205056351$P5415633-1 phases=3 Bus1=205056354.1.2.3 Bus2=33608717.1.2.3 LineCode=2_CLP_3PH_12KV_3 Length=0.00244 units=km
New Line.P5462260-1$ND33702644 phases=1 Bus1=33702644.2 Bus2=33669854.2 LineCode=2_CLP_1PH_12KV_1 Length=0.03979 units=km
New Line.P5462261-2$ND33702644 phases=1 Bus1=33702644.2 Bus2=33669935.2 LineCode=2_CLP_1PH_12KV_1 Length=0.080324 units=km
New Line.ND200729188$169198609 phases=3 Bus1=169198611.1.2.3 Bus2=200729188.1.2.3 LineCode=1/0_CLP_3PH_12KV_3 Length=0.059573 units=km
New Line.ND50441508$ND200729188 phases=3 Bus1=200729188.1.2.3 Bus2=50441486.1.2.3 LineCode=1/0_CLP_3PH_12KV_3 Length=0.031617 units=km
New Line.4105726E$ND108659916 phases=3 Bus1=33608762.1.2.3 Bus2=108659916.1.2.3 LineCode=1000_CLP_3PH_12KV_3 Length=0.055836 units=km
New Line.ND108659916$ND183458174 phases=3 Bus1=108659916.1.2.3 Bus2=183458174.1.2.3 LineCode=1000_CLP_3PH_12KV_3 Length=0.447604 units=km
New Line.GS4377-3$ND183458174 phases=3 Bus1=183458174.1.2.3 Bus2=33608828.1.2.3 LineCode=1000_CLP_3PH_12KV_3 Length=0.017633 units=km
New Line.V5392168$ND183458174 phases=3 Bus1=183458174.1.2.3 Bus2=33700841.1.2.3 LineCode=1/0_CLP_3PH_12KV_3 Length=0.006632 units=km
New Line.GS4377-2$ND183458196 phases=3 Bus1=33608812.1.2.3 Bus2=183458196.1.2.3 LineCode=1000_CLP_3PH_12KV_3 Length=0.011299 units=km
New Line.GS4377-1$ND33701702 phases=3 Bus1=33608820.1.2.3 Bus2=33701702.1.2.3 LineCode=1000_CLP_3PH_12KV_3 Length=0.010905 units=km
New Line.ND33701702$PMS4402-1 phases=1 Bus1=33701702.3 Bus2=33635756.3 LineCode=2_CLP_1PH_12KV_1 Length=0.123323 units=km
New Line.FC5112-1$ND33701702 phases=1 Bus1=33701702.2 Bus2=33672026.2 LineCode=1/0_CLP_1PH_12KV_1 Length=0.03172 units=km
New Line.ND33701702$ND33701807 phases=3 Bus1=33701702.1.2.3 Bus2=33701807.1.2.3 LineCode=1000_CLP_3PH_12KV_3 Length=0.315525 units=km
New Line.ND33701807$ND33701682 phases=3 Bus1=33701807.1.2.3 Bus2=33701682.1.2.3 LineCode=1000_CLP_3PH_12KV_3 Length=0.006749 units=km
New Line.ND33701807$ND33701880 phases=3 Bus1=33701807.1.2.3 Bus2=33701880.1.2.3 LineCode=1/0_CLP_3PH_12KV_3 Length=0.166209 units=km
New Line.ND33701682$ND152630444 phases=3 Bus1=33701682.1.2.3 Bus2=152630444.1.2.3 LineCode=1000_CLP_3PH_12KV_3 Length=0.528995 units=km
New Line.176565337$FC5112-1 phases=1 Bus1=33672027.2 Bus2=176565339.2 LineCode=1/0_CLP_1PH_12KV_1 Length=0.153834 units=km
New Line.PMS4402-1$P5370695-1 phases=1 Bus1=33635757.3 Bus2=33635878.3 LineCode=2_CLP_1PH_12KV_1 Length=0.135027 units=km
New Line.ND33701880$33700986 phases=3 Bus1=33701880.1.2.3 Bus2=33700988.1.2.3 LineCode=1/0_CLP_3PH_12KV_3 Length=0.052064 units=km
New Line.ND33701880$ND33702004 phases=3 Bus1=33701880.1.2.3 Bus2=33702004.1.2.3 LineCode=1/0_CLP_3PH_12KV_3 Length=0.160423 units=km
New Line.P5392113$ND152630444 phases=1 Bus1=152630444.2 Bus2=152630430.2 LineCode=2_CLP_1PH_12KV_1 Length=0.003243 units=km
New Line.ND33702004$33700976 phases=3 Bus1=33702004.1.2.3 Bus2=172767795.1.2.3 LineCode=1/0_CLP_3PH_12KV_3 Length=0.08159 units=km
New Line.ND33702004$186909630 phases=3 Bus1=33702004.1.2.3 Bus2=186909632.1.2.3 LineCode=1/0_CLP_3PH_12KV_3 Length=0.069492 units=km
New Line.ND152630444$RCS4373-2 phases=3 Bus1=152630444.1.2.3 Bus2=209952888.1.2.3 LineCode=1000_CLP_3PH_12KV_3 Length=0.006909 units=km
New Line.33700986$P5416285-1 phases=3 Bus1=33700989.1.2.3 Bus2=33637873.1.2.3 LineCode=1/0_CLP_3PH_12KV_3 Length=0.001882 units=km
New Line.P5451880-2$176565337 phases=1 Bus1=176565340.2 Bus2=33672085.2 LineCode=1/0_CLP_1PH_12KV_1 Length=0.002279 units=km
New Line.186909630$P5416288-A phases=3 Bus1=186909633.1.2.3 Bus2=153285957.1.2.3 LineCode=1/0_CLP_3PH_12KV_3 Length=0.002739 units=km
New Line.P5370695-2$P5370696-1 phases=1 Bus1=33635887.3 Bus2=33635950.3 LineCode=2_CLP_1PH_12KV_1 Length=0.196448 units=km
New Line.185517352$PME4463-1 phases=1 Bus1=185517355.2 Bus2=55202461.2 LineCode=2_CLP_1PH_12KV_1 Length=0.00242 units=km
New Line.107362861$PME4339-1 phases=1 Bus1=107362864.1 Bus2=55202511.1 LineCode=2_CLP_1PH_12KV_1 Length=0.001075 units=km
New Line.193337685$PME6928-1 phases=1 Bus1=193337688.2 Bus2=55202561.2 LineCode=2_CLP_1PH_12KV_1 Length=0.002146 units=km
New Line.P5397658-2$209952805 phases=1 Bus1=209952807.3 Bus2=33636464.3 LineCode=2_CLP_1PH_12KV_1 Length=0.052469 units=km
New Line.P5397665-2$P5397664-2 phases=1 Bus1=33636824.1 Bus2=33636896.1 LineCode=2_CLP_1PH_12KV_1 Length=0.072553 units=km
New Line.P5391848-2$P5392200-1 phases=1 Bus1=33637657.3 Bus2=33637738.3 LineCode=2_CLP_1PH_12KV_1 Length=0.147157 units=km
New Line.P5370812-1$226027658 phases=1 Bus1=226027661.3 Bus2=33671738.3 LineCode=2_CLP_1PH_12KV_1 Length=0.001237 units=km
New Line.33700976$P5416287-1 phases=3 Bus1=172767796.1.2.3 Bus2=33637969.1.2.3 LineCode=1/0_CLP_3PH_12KV_3 Length=0.002768 units=km
New Line.RCS4373-3$200063432 phases=3 Bus1=209952870.1.2.3 Bus2=200063434.1.2.3 LineCode=1000_CLP_3PH_12KV_3 Length=0.09955 units=km
New Line.176565310$P5451880-1 phases=1 Bus1=33672076.2 Bus2=176565313.2 LineCode=1/0_CLP_1PH_12KV_1 Length=0.070727 units=km
New Line.PME4374-4$RCS4373-4 phases=3 Bus1=209952879.1.2.3 Bus2=33671497.1.2.3 LineCode=1000_JCN_3PH_12KV_3 Length=0.428598 units=km
New Line.ND33701756$RCS4373-1 phases=3 Bus1=209952897.1.2.3 Bus2=33701756.1.2.3 LineCode=1/0_CLP_3PH_12KV_3 Length=0.015934 units=km
New Line.200063432$PME7049-4 phases=3 Bus1=200063435.1.2.3 Bus2=148976712.1.2.3 LineCode=1000_CLP_3PH_12KV_3 Length=0.001157 units=km
New Line.182523036$P5370696-2 phases=1 Bus1=33635959.3 Bus2=182523038.3 LineCode=2_CLP_1PH_12KV_1 Length=0.158299 units=km
New Line.P5400629-2$226027797 phases=1 Bus1=226027800.2 Bus2=33672445.2 LineCode=2_CLP_1PH_12KV_1 Length=0.003045 units=km
New Line.108240195$PME4339-1 phases=1 Bus1=55202512.1 Bus2=108240198.1 LineCode=2_CLP_1PH_12KV_1 Length=0.002339 units=km
New Line.169505284$P5392188-2 phases=1 Bus1=33637090.1 Bus2=169505286.1 LineCode=2_CLP_1PH_12KV_1 Length=0.160292 units=km
New Line.185517379$PME4463-1 phases=1 Bus1=55202462.2 Bus2=185517382.2 LineCode=2_CLP_1PH_12KV_1 Length=0.059422 units=km
New Line.185767746$P5636584-2 phases=1 Bus1=185767683.3 Bus2=185767749.3 LineCode=2_CLP_1PH_12KV_1 Length=0.097419 units=km
New Line.193337658$PME6928-1 phases=1 Bus1=55202562.2 Bus2=193337661.2 LineCode=2_CLP_1PH_12KV_1 Length=0.063987 units=km
New Line.P5416288-B$186909605 phases=3 Bus1=153285940.1.2.3 Bus2=186909608.1.2.3 LineCode=2_CLP_3PH_12KV_3 Length=0.00286 units=km
New Line.ND33701756$187683635 phases=1 Bus1=33701756.3 Bus2=187683637.3 LineCode=2_CLP_1PH_12KV_1 Length=0.096591 units=km
New Line.ND33701756$BS4372-T phases=3 Bus1=33701756.1.2.3 Bus2=200063621.1.2.3 LineCode=1/0_CLP_3PH_12KV_3 Length=0.223024 units=km
New Line.200397403$ND33701756 phases=1 Bus1=33701756.1 Bus2=200397405.1 LineCode=2_CLP_1PH_12KV_1 Length=0.042092 units=km
New Line.176565283$176565310 phases=1 Bus1=176565312.2 Bus2=176565285.2 LineCode=1/0_CLP_1PH_12KV_1 Length=0.056151 units=km
New Line.PME4504-1$200397403 phases=1 Bus1=200397406.1 Bus2=154356859.1 LineCode=2_CLP_1PH_12KV_1 Length=0.001304 units=km
New Line.P5370697-1$182523036 phases=1 Bus1=182523039.3 Bus2=33636022.3 LineCode=2_CLP_1PH_12KV_1 Length=0.001771 units=km
New Line.238926854$P5392195-1 phases=1 Bus1=238926857.2 Bus2=33637369.2 LineCode=2_CLP_1PH_12KV_1 Length=0.001121 units=km
New Line.P5400637-1$205000624 phases=1 Bus1=205000627.3 Bus2=33638713.3 LineCode=2_CLP_1PH_12KV_1 Length=0.101407 units=km
New Line.P5400626-1$P5400627-2 phases=1 Bus1=33672655.2 Bus2=33672589.2 LineCode=2_CLP_1PH_12KV_1 Length=0.117079 units=km
New Line.P5383839-2$P5400625-1 phases=1 Bus1=33672799.1 Bus2=33672736.1 LineCode=2_CLP_1PH_12KV_1 Length=0.141573 units=km
New Line.235954366$P5414172-2 phases=1 Bus1=235954369.2 Bus2=33673096.2 LineCode=2_CLP_1PH_12KV_1 Length=0.001201 units=km
New Line.186459984$P5400634-2 phases=1 Bus1=186459987.1 Bus2=33699436.1 LineCode=1/0_CLP_1PH_12KV_1 Length=0.003326 units=km
New Line.P5400636-1$226422620 phases=1 Bus1=226422623.1 Bus2=33699931.1 LineCode=1/0_CLP_1PH_12KV_1 Length=0.001425 units=km
New Line.P5391822-2$P5391823-1 phases=1 Bus1=55202614.1 Bus2=55202695.1 LineCode=2_CLP_1PH_12KV_1 Length=0.088963 units=km
New Line.P5400843-2$ND185480421 phases=1 Bus1=33669426.3 Bus2=185480421.3 LineCode=2_CLP_1PH_12KV_1 Length=0.243786 units=km
New Line.P5400842-1$238926911 phases=1 Bus1=33669345.3 Bus2=238926913.3 LineCode=2_CLP_1PH_12KV_1 Length=0.155619 units=km
New Line.P5414179-2$ND33701542 phases=1 Bus1=33699364.1 Bus2=33701542.1 LineCode=2_CLP_1PH_12KV_1 Length=0.064027 units=km
New Line.172919968$ND33701542 phases=1 Bus1=33701542.1 Bus2=172919970.1 LineCode=2_CLP_1PH_12KV_1 Length=0.097755 units=km
New Line.187683635$PMS4565-1 phases=1 Bus1=187683638.3 Bus2=33636314.3 LineCode=2_CLP_1PH_12KV_1 Length=0.007591 units=km
New Line.PME4374-1$RCS4375-4 phases=3 Bus1=33671515.1.2.3 Bus2=33700197.1.2.3 LineCode=350_CLP_3PH_12KV_3 Length=0.192071 units=km
New Line.186909605$33700996 phases=3 Bus1=186909607.1.2.3 Bus2=33700998.1.2.3 LineCode=2_CLP_3PH_12KV_3 Length=0.036393 units=km
New Line.200063367$PME7049-2 phases=1 Bus1=148976722.2 Bus2=200063370.2 LineCode=2_CLP_1PH_12KV_1 Length=0.327598 units=km
New Line.200397346$PME4374-3 phases=1 Bus1=33671489.3 Bus2=200397349.3 LineCode=2_CLP_1PH_12KV_1 Length=0.002187 units=km
New Line.PME4374-2$GS4395-1 phases=3 Bus1=33671506.1.2.3 Bus2=235717093.1.2.3 LineCode=1000_CLP_3PH_12KV_3 Length=0.24428 units=km
New Line.BS4372-L$P5391829-1 phases=3 Bus1=200063613.1.2.3 Bus2=33636201.1.2.3 LineCode=1/0_CLP_3PH_12KV_3 Length=0.116367 units=km
New Line.P5451881-2$176565283 phases=1 Bus1=176565286.2 Bus2=33672157.2 LineCode=1/0_CLP_1PH_12KV_1 Length=0.002769 units=km
New Line.ND33701662$BS4372-R phases=3 Bus1=200063604.1.2.3 Bus2=33701662.1.2.3 LineCode=1/0_CLP_3PH_12KV_3 Length=0.016324 units=km
New Line.200063340$PME7049-1 phases=1 Bus1=148976740.3 Bus2=200063343.3 LineCode=2_CLP_1PH_12KV_1 Length=0.1242 units=km
New Line.PME7049-3$200063392 phases=1 Bus1=148976731.1 Bus2=200063395.1 LineCode=2_CLP_1PH_12KV_1 Length=0.114278 units=km
New Line.200397376$PME4504-1 phases=1 Bus1=154356858.1 Bus2=200397379.1 LineCode=2_CLP_1PH_12KV_1 Length=0.004289 units=km
New Line.172920034$ND33701542 phases=1 Bus1=33701542.1 Bus2=172920036.1 LineCode=2_CLP_1PH_12KV_1 Length=0.076994 units=km
New Line.183433588$193337658 phases=1 Bus1=193337660.2 Bus2=183433590.2 LineCode=2_CLP_1PH_12KV_1 Length=0.048371 units=km
New Line.186380580$185517379 phases=1 Bus1=185517381.2 Bus2=186380582.2 LineCode=2_CLP_1PH_12KV_1 Length=0.120675 units=km
New Line.226027687$P5370812-2 phases=1 Bus1=33671747.3 Bus2=226027690.3 LineCode=2_CLP_1PH_12KV_1 Length=0.001159 units=km
New Line.P5397659-2$P5397658-1 phases=1 Bus1=33636455.3 Bus2=33636536.3 LineCode=2_CLP_1PH_12KV_1 Length=0.072095 units=km
New Line.P5392189-2$169505284 phases=1 Bus1=169505287.1 Bus2=33637162.1 LineCode=2_CLP_1PH_12KV_1 Length=0.001256 units=km
New Line.P5391849-2$P5391848-1 phases=1 Bus1=33637729.3 Bus2=33637810.3 LineCode=2_CLP_1PH_12KV_1 Length=0.091166 units=km
New Line.P5370684-2$185767746 phases=1 Bus1=185767748.3 Bus2=33638506.3 LineCode=2_CLP_1PH_12KV_1 Length=0.096791 units=km
New Line.P5400844-2$ND185480421 phases=1 Bus1=185480421.3 Bus2=33669282.3 LineCode=2_CLP_1PH_12KV_1 Length=0.323291 units=km
New Line.P5391809-1$108240195 phases=1 Bus1=108240197.1 Bus2=55173318.1 LineCode=2_CLP_1PH_12KV_1 Length=0.065406 units=km
New Line.217668541$P5391822-1 phases=1 Bus1=55202686.1 Bus2=217668543.1 LineCode=2_CLP_1PH_12KV_1 Length=0.167493 units=km
New Line.226027824$P5400627-1 phases=1 Bus1=33672580.2 Bus2=226027826.2 LineCode=2_CLP_1PH_12KV_1 Length=0.170065 units=km
New Line.P5400636-2$226422645 phases=1 Bus1=33699940.1 Bus2=226422648.1 LineCode=1/0_CLP_1PH_12KV_1 Length=0.14071 units=km
New Line.P5414172-1$235954393 phases=1 Bus1=33673087.2 Bus2=235954396.2 LineCode=2_CLP_1PH_12KV_1 Length=0.1532 units=km
New Line.238926881$P5392195-2 phases=1 Bus1=33637378.2 Bus2=238926884.2 LineCode=2_CLP_1PH_12KV_1 Length=0.225568 units=km
New Line.238926911$P5400841-2 phases=1 Bus1=238926914.3 Bus2=33639152.3 LineCode=2_CLP_1PH_12KV_1 Length=0.001835 units=km
New Line.P5391827-1$226027687 phases=1 Bus1=226027689.3 Bus2=33669561.3 LineCode=2_CLP_1PH_12KV_1 Length=0.255117 units=km
New Line.P5414182-1$172919968 phases=1 Bus1=172919971.1 Bus2=33673447.1 LineCode=2_CLP_1PH_12KV_1 Length=0.002598 units=km
New Line.P5414181-1$172920034 phases=1 Bus1=172920037.1 Bus2=33673519.1 LineCode=2_CLP_1PH_12KV_1 Length=0.003529 units=km
New Line.P5336608-1$183433588 phases=1 Bus1=183433591.2 Bus2=55201954.2 LineCode=2_CLP_1PH_12KV_1 Length=0.00088 units=km
New Line.P5391931-2$186380580 phases=1 Bus1=186380583.2 Bus2=55202326.2 LineCode=2_CLP_1PH_12KV_1 Length=0.002234 units=km