! OpenDSS script generated from multiconductor network
Clear

New Circuit.mc_network basekv=12.0 pu=1.000000 angle=0.00 frequency=60.0 phases=3 Mvasc3=143993 Mvasc1=47997.6
~ bus1=-8888882190370.1.2.3

! Line codes
New LineCode.350_CLP_3PH_12KV_3 nphases=3 units=km Rmatrix=[ 0.015989 | 0 0.015989 | 0 0 0.015989 ] Xmatrix=[ 0.012148 | 0 0.012148 | 0 0 0.012148 ] Cmatrix=[ 0 | 0 0 | 0 0 0 ]
New LineCode.2_CLP_3PH_12KV_3 nphases=3 units=km Rmatrix=[ 0.009814 | 0 0.009814 | 0 0 0.009814 ] Xmatrix=[ 0.002069 | 0 0.002069 | 0 0 0.002069 ] Cmatrix=[ 0 | 0 0 | 0 0 0 ]
New LineCode.1/0_CLP_3PH_12KV_3 nphases=3 units=km Rmatrix=[ 0.067049 | 0 0.067049 | 0 0 0.067049 ] Xmatrix=[ 0.020493 | 0 0.020493 | 0 0 0.020493 ] Cmatrix=[ 0 | 0 0 | 0 0 0 ]
New LineCode.1/0_JCN_3PH_12KV_3 nphases=3 units=km Rmatrix=[ 0.00344 | 0 0.00344 | 0 0 0.00344 ] Xmatrix=[ 0.001052 | 0 0.001052 | 0 0 0.001052 ] Cmatrix=[ 0 | 0 0 | 0 0 0 ]
New LineCode.1000_JCN_3PH_12KV_3 nphases=3 units=km Rmatrix=[ 0.008871 | 0 0.008871 | 0 0 0.008871 ] Xmatrix=[ 0.013428 | 0 0.013428 | 0 0 0.013428 ] Cmatrix=[ 0 | 0 0 | 0 0 0 ]
New LineCode.1000_CLP_3PH_12KV_3 nphases=3 units=km Rmatrix=[ 0.000184 | 0 0.000184 | 0 0 0.000184 ] Xmatrix=[ 0.000278 | 0 0.000278 | 0 0 0.000278 ] Cmatrix=[ 0 | 0 0 | 0 0 0 ]
New LineCode.750_CLP_3PH_12KV_3 nphases=3 units=km Rmatrix=[ 0.011417 | 0 0.011417 | 0 0 0.011417 ] Xmatrix=[ 0.014021 | 0 0.014021 | 0 0 0.014021 ] Cmatrix=[ 0 | 0 0 | 0 0 0 ]
New LineCode.750_JCN_3PH_12KV_3 nphases=3 units=km Rmatrix=[ 0.043236 | 0 0.043236 | 0 0 0.043236 ] Xmatrix=[ 0.0531 | 0 0.0531 | 0 0 0.0531 ] Cmatrix=[ 0 | 0 0 | 0 0 0 ]
New LineCode.336_ACSR_3PH_336_ACSR_N_12KV_4 nphases=4 units=km Rmatrix=[ 0.010411 | 0 0.010411 | 0 0 0.010411 | 0 0 0 0.010411 ] Xmatrix=[ 0.020761 | 0 0.020761 | 0 0 0.020761 | 0 0 0 0.020761 ] Cmatrix=[ 0 | 0 0 | 0 0 0 | 0 0 0 0 ]
New LineCode.4_ACSR_2PH_12KV_2 nphases=2 units=km Rmatrix=[ 0.063241 | 0 0.063241 ] Xmatrix=[ 0.023206 | 0 0.023206 ] Cmatrix=[ 0 | 0 0 ]
New LineCode.4/0_CU_3PH_4/0_CU_N_12KV_4 nphases=4 units=km Rmatrix=[ 0.011961 | 0 0.011961 | 0 0 0.011961 | 0 0 0 0.011961 ] Xmatrix=[ 0.025153 | 0 0.025153 | 0 0 0.025153 | 0 0 0 0.025153 ] Cmatrix=[ 0 | 0 0 | 0 0 0 | 0 0 0 0 ]
New LineCode.350_JCN_3PH_12KV_3 nphases=3 units=km Rmatrix=[ 0.066759 | 0 0.066759 | 0 0 0.066759 ] Xmatrix=[ 0.050723 | 0 0.050723 | 0 0 0.050723 ] Cmatrix=[ 0 | 0 0 | 0 0 0 ]
New LineCode.2_ACSR_3PH_12KV_3 nphases=3 units=km Rmatrix=[ 0.007762 | 0 0.007762 | 0 0 0.007762 ] Xmatrix=[ 0.004173 | 0 0.004173 | 0 0 0.004173 ] Cmatrix=[ 0 | 0 0 | 0 0 0 ]
New LineCode.336_ACSR_3PH_12KV_3 nphases=3 units=km Rmatrix=[ 0.001405 | 0 0.001405 | 0 0 0.001405 ] Xmatrix=[ 0.003145 | 0 0.003145 | 0 0 0.003145 ] Cmatrix=[ 0 | 0 0 | 0 0 0 ]
New LineCode.336_ACSR_2PH_12KV_2 nphases=2 units=km Rmatrix=[ 0.038691 | 0 0.038691 ] Xmatrix=[ 0.086644 | 0 0.086644 ] Cmatrix=[ 0 | 0 0 ]
New LineCode.4/0_ACSR_3PH_12KV_3 nphases=3 units=km Rmatrix=[ 0.028595 | 0 0.028595 | 0 0 0.028595 ] Xmatrix=[ 0.040412 | 0 0.040412 | 0 0 0.040412 ] Cmatrix=[ 0 | 0 0 | 0 0 0 ]
New LineCode.1000_JCN_C_3PH_12KV_3 nphases=3 units=km Rmatrix=[ 1e-05 | 0 1e-05 | 0 0 1e-05 ] Xmatrix=[ 1e-05 | 0 1e-05 | 0 0 1e-05 ] Cmatrix=[ 0 | 0 0 | 0 0 0 ]
New LineCode.336_ATW_3PH_336_ATW_N_12KV_4 nphases=4 units=km Rmatrix=[ 1e-05 | 0 1e-05 | 0 0 1e-05 | 0 0 0 1e-05 ] Xmatrix=[ 1e-05 | 0 1e-05 | 0 0 1e-05 | 0 0 0 1e-05 ] Cmatrix=[ 0 | 0 0 | 0 0 0 | 0 0 0 0 ]
New LineCode.336_ATW_3PH_12KV_3 nphases=3 units=km Rmatrix=[ 1e-05 | 0 1e-05 | 0 0 1e-05 ] Xmatrix=[ 1e-05 | 0 1e-05 | 0 0 1e-05 ] Cmatrix=[ 0 | 0 0 | 0 0 0 ]

! Lines
New Line.166670726$ND64359567 phases=3 Bus1=166670729.1.2.3 Bus2=64359548.1.2.3 LineCode=350_CLP_3PH_12KV_3 Length=0.00499 units=km
New Line.ND105961865$J941-2P phases=3 Bus1=105961447.1.2.3 Bus2=105961865.1.2.3 LineCode=2_CLP_3PH_12KV_3 Length=0.084474 units=km
New Line.105961586$P5575939-A phases=3 Bus1=105961589.1.2.3 Bus2=153375645.1.2.3 LineCode=2_CLP_3PH_12KV_3 Length=0.002385 units=km
New Line.J941-3P$105961613 phases=3 Bus1=105961439.1.2.3 Bus2=105961615.1.2.3 LineCode=1/0_CLP_3PH_12KV_3 Length=0.005439 units=km
New Line.ND105961865$105961731 phases=3 Bus1=105961865.1.2.3 Bus2=105961733.1.2.3 LineCode=2_CLP_3PH_12KV_3 Length=0.009936 units=km
New Line.105961741$ND105961865 phases=3 Bus1=105961865.1.2.3 Bus2=105961743.1.2.3 LineCode=2_CLP_3PH_12KV_3 Length=0.057685 units=km
New Line.105961613$P5575943-1 phases=3 Bus1=105961616.1.2.3 Bus2=105961543.1.2.3 LineCode=1/0_CLP_3PH_12KV_3 Length=0.00377 units=km
New Line.105961731$P5575944-1 phases=3 Bus1=105961734.1.2.3 Bus2=105961653.1.2.3 LineCode=2_CLP_3PH_12KV_3 Length=0.004239 units=km
New Line.105961741$P5575945-1 phases=3 Bus1=105961744.1.2.3 Bus2=105961695.1.2.3 LineCode=2_CLP_3PH_12KV_3 Length=0.003476 units=km
New Line.P5575939-B$107465276 phases=3 Bus1=153375628.1.2.3 Bus2=107465279.1.2.3 LineCode=2_CLP_3PH_12KV_3 Length=0.003526 units=km
New Line.J694-2P$176062588 phases=3 Bus1=105730910.1.2.3 Bus2=176062590.1.2.3 LineCode=2_CLP_3PH_12KV_3 Length=0.078215 units=km
New Line.J694-3P$P5383727-1 phases=3 Bus1=105730894.1.2.3 Bus2=153632757.1.2.3 LineCode=1/0_CLP_3PH_12KV_3 Length=0.015527 units=km
New Line.105961799$107465276 phases=3 Bus1=107465278.1.2.3 Bus2=105961801.1.2.3 LineCode=2_CLP_3PH_12KV_3 Length=0.069471 units=km
New Line.P5429387-1$176062588 phases=3 Bus1=176062591.1.2.3 Bus2=107465350.1.2.3 LineCode=2_CLP_3PH_12KV_3 Length=0.003072 units=km
New Line.105961799$P5575940-1 phases=3 Bus1=105961802.1.2.3 Bus2=105961763.1.2.3 LineCode=2_CLP_3PH_12KV_3 Length=0.003064 units=km
New Line.J937-1P$GS6601-2 phases=3 Bus1=105731039.1.2.3 Bus2=105961228.1.2.3 LineCode=2_CLP_3PH_12KV_3 Length=0.077825 units=km
New Line.173701455$173701430 phases=3 Bus1=173701457.1.2.3 Bus2=173701432.1.2.3 LineCode=1/0_JCN_3PH_12KV_3 Length=0.019256 units=km
New Line.PME4940-2$241069476 phases=3 Bus1=64358508.1.2.3 Bus2=241069478.1.2.3 LineCode=1/0_JCN_3PH_12KV_3 Length=0.036652 units=km
New Line.PME5845-2$196603517 phases=3 Bus1=67853846.1.2.3 Bus2=196603520.1.2.3 LineCode=1/0_JCN_3PH_12KV_3 Length=0.00488 units=km
New Line.192775721$200130832 phases=3 Bus1=192775723.1.2.3 Bus2=200130834.1.2.3 LineCode=2_CLP_3PH_12KV_3 Length=0.073028 units=km
New Line.PME4497-2$238240250 phases=3 Bus1=64358592.1.2.3 Bus2=238240253.1.2.3 LineCode=350_CLP_3PH_12KV_3 Length=0.002734 units=km
New Line.GS6601-4$J941-1P phases=3 Bus1=105731063.1.2.3 Bus2=105961431.1.2.3 LineCode=1/0_CLP_3PH_12KV_3 Length=0.232238 units=km
New Line.173701430$ND152193102 phases=3 Bus1=173701433.1.2.3 Bus2=152193084.1.2.3 LineCode=1/0_JCN_3PH_12KV_3 Length=0.005713 units=km
New Line.241069476$ND64359540 phases=3 Bus1=241069479.1.2.3 Bus2=64359518.1.2.3 LineCode=1/0_JCN_3PH_12KV_3 Length=0.004624 units=km
New Line.238240250$166670726 phases=3 Bus1=238240252.1.2.3 Bus2=166670728.1.2.3 LineCode=350_CLP_3PH_12KV_3 Length=0.011202 units=km
New Line.200130832$ND52246532 phases=3 Bus1=200130835.1.2.3 Bus2=183338247.1.2.3 LineCode=2_CLP_3PH_12KV_3 Length=0.005325 units=km
New Line.196603517$ND67853936 phases=3 Bus1=196603519.1.2.3 Bus2=67853916.1.2.3 LineCode=1/0_JCN_3PH_12KV_3 Length=0.035008 units=km
New Line.J937-2P$105961586 phases=3 Bus1=105961252.1.2.3 Bus2=105961588.1.2.3 LineCode=2_CLP_3PH_12KV_3 Length=0.178267 units=km
New Line.ND155409134$ND155409142 phases=3 Bus1=155409142.1.2.3 Bus2=155409134.1.2.3 LineCode=1000_JCN_3PH_12KV_3 Length=0.19563 units=km
New Line.ND155409134$ND242923031 phases=3 Bus1=155409134.1.2.3 Bus2=242923031.1.2.3 LineCode=1000_CLP_3PH_12KV_3 Length=3.20543 units=km
New Line.ND242923073$GS5881-4 phases=3 Bus1=242923073.1.2.3 Bus2=71057237.1.2.3 LineCode=1000_CLP_3PH_12KV_3 Length=0.256643 units=km
New Line.GS5881-1$ND71057730 phases=3 Bus1=71057221.1.2.3 Bus2=71057730.1.2.3 LineCode=1000_CLP_3PH_12KV_3 Length=0.492214 units=km
New Line.GS5882-1$ND71057730 phases=3 Bus1=71057730.1.2.3 Bus2=106284810.1.2.3 LineCode=1000_JCN_3PH_12KV_3 Length=0.309701 units=km
New Line.ND71057769$ND71057730 phases=3 Bus1=71057730.1.2.3 Bus2=71057769.1.2.3 LineCode=1000_CLP_3PH_12KV_3 Length=0.068563 units=km
New Line.ND71057769$S5302038 phases=3 Bus1=71057769.1.2.3 Bus2=64362188.1.2.3 LineCode=750_CLP_3PH_12KV_3 Length=0.002343 units=km
New Line.ND71057769$ND64375747 phases=3 Bus1=71057769.1.2.3 Bus2=64375747.1.2.3 LineCode=1000_CLP_3PH_12KV_3 Length=0.001875 units=km
New Line.ND64375747$186020392 phases=3 Bus1=64375747.1.2.3 Bus2=186020394.1.2.3 LineCode=750_CLP_3PH_12KV_3 Length=0.152318 units=km
New Line.ND64375747$190352628 phases=3 Bus1=64375747.1.2.3 Bus2=190352630.1.2.3 LineCode=1000_CLP_3PH_12KV_3 Length=0.021252 units=km
New Line.GS8196-1$GS5882-2 phases=3 Bus1=106284802.1.2.3 Bus2=207423834.1.2.3 LineCode=750_JCN_3PH_12KV_3 Length=0.217293 units=km
New Line.186020392$P5302039-1 phases=3 Bus1=186020395.1.2.3 Bus2=64358975.1.2.3 LineCode=750_CLP_3PH_12KV_3 Length=0.005065 units=km
New Line.190352628$P5516607-1 phases=3 Bus1=190352631.1.2.3 Bus2=64360636.1.2.3 LineCode=1000_CLP_3PH_12KV_3 Length=0.002165 units=km
New Line.ND203678389$GS5882-3 phases=3 Bus1=106284818.1.2.3 Bus2=203678389.1.2.3 LineCode=1000_JCN_3PH_12KV_3 Length=0.104893 units=km
New Line.PH492E$ND203678389 phases=3 Bus1=203678389.1.2.3 Bus2=64345376.1.2.3 LineCode=750_CLP_3PH_12KV_3 Length=0.101488 units=km
New Line.J937-3P$J694-1P phases=3 Bus1=105961236.1.2.3 Bus2=105730886.1.2.3 LineCode=2_CLP_3PH_12KV_3 Length=0.180905 units=km
New Line.PS3252$ND64375997 phases=4 Bus1=64375997.0.1.2.3 Bus2=64362509.0.1.2.3 LineCode=336_ACSR_3PH_336_ACSR_N_12KV_4 Length=0.061989 units=km
New Line.BF34764$1608092E phases=2 Bus1=64361985.2.3 Bus2=64345367.2.3 LineCode=4_ACSR_2PH_12KV_2 Length=0.06676 units=km
New Line.PS3252$4606491E phases=4 Bus1=64362508.0.1.2.3 Bus2=64359946.0.1.2.3 LineCode=336_ACSR_3PH_336_ACSR_N_12KV_4 Length=0.06084 units=km
New Line.4606491E$ND64375811 phases=4 Bus1=64359946.0.1.2.3 Bus2=64375811.0.1.2.3 LineCode=336_ACSR_3PH_336_ACSR_N_12KV_4 Length=0.078107 units=km
New Line.ND64375811$ND64375812 phases=4 Bus1=64375811.0.1.2.3 Bus2=64375812.0.1.2.3 LineCode=336_ACSR_3PH_336_ACSR_N_12KV_4 Length=0.067414 units=km
New Line.ND64375811$ND64376225 phases=4 Bus1=64375811.0.1.2.3 Bus2=64376225.0.1.2.3 LineCode=4/0_CU_3PH_4/0_CU_N_12KV_4 Length=0.030712 units=km
New Line.4406829E$194436614 phases=3 Bus1=64359835.1.2.3 Bus2=194436616.1.2.3 LineCode=2_CLP_3PH_12KV_3 Length=0.089893 units=km
New Line.ND64375997$PH492E phases=4 Bus1=64345375.0.1.2.3 Bus2=64375997.0.1.2.3 LineCode=336_ACSR_3PH_336_ACSR_N_12KV_4 Length=0.034503 units=km
New Line.GS8196-2$793E phases=3 Bus1=207423842.1.2.3 Bus2=70424316.1.2.3 LineCode=750_JCN_3PH_12KV_3 Length=0.209195 units=km
New Line.GS4198-2$V5352787T phases=3 Bus1=52244279.1.2.3 Bus2=52248556.1.2.3 LineCode=1/0_CLP_3PH_12KV_3 Length=0.012241 units=km
New Line.PME5710-4$P5448357 phases=3 Bus1=64360712.1.2.3 Bus2=64360851.1.2.3 LineCode=1/0_CLP_3PH_12KV_3 Length=0.128968 units=km
New Line.GS6601-1$V5352787T phases=3 Bus1=52248556.1.2.3 Bus2=105731047.1.2.3 LineCode=1/0_CLP_3PH_12KV_3 Length=0.315091 units=km
New Line.52248562$P5422939-1 phases=3 Bus1=52248565.1.2.3 Bus2=52243673.1.2.3 LineCode=2_CLP_3PH_12KV_3 Length=0.001882 units=km
New Line.P5383726-1$GS4198-3 phases=3 Bus1=52244287.1.2.3 Bus2=52244041.1.2.3 LineCode=1/0_CLP_3PH_12KV_3 Length=0.192447 units=km
New Line.PME4940-1$PME6791-1 phases=3 Bus1=152192888.1.2.3 Bus2=64358517.1.2.3 LineCode=1/0_JCN_3PH_12KV_3 Length=0.106151 units=km
New Line.PME5710-3$P5448356 phases=3 Bus1=64360703.1.2.3 Bus2=64360875.1.2.3 LineCode=1/0_CLP_3PH_12KV_3 Length=0.111497 units=km
New Line.GS4198-4$194382758 phases=3 Bus1=52244295.1.2.3 Bus2=194382760.1.2.3 LineCode=2_CLP_3PH_12KV_3 Length=0.105915 units=km
New Line.192775748$PME5275-1 phases=3 Bus1=192775751.1.2.3 Bus2=52241322.1.2.3 LineCode=2_CLP_3PH_12KV_3 Length=0.002642 units=km
New Line.PME4497-1$PME6791-3 phases=3 Bus1=152192861.1.2.3 Bus2=64358601.1.2.3 LineCode=350_JCN_3PH_12KV_3 Length=0.300733 units=km
New Line.PME6791-2$PME5845-1 phases=3 Bus1=152192879.1.2.3 Bus2=67853855.1.2.3 LineCode=1/0_JCN_3PH_12KV_3 Length=0.15671 units=km
New Line.PME6972-2$173701455 phases=3 Bus1=152193014.1.2.3 Bus2=173701458.1.2.3 LineCode=1/0_JCN_3PH_12KV_3 Length=0.003009 units=km
New Line.GS4197-1$GS4198-5 phases=3 Bus1=52244303.1.2.3 Bus2=52243875.1.2.3 LineCode=350_CLP_3PH_12KV_3 Length=0.085893 units=km
New Line.PME5275-1$192775721 phases=3 Bus1=52241323.1.2.3 Bus2=192775724.1.2.3 LineCode=2_CLP_3PH_12KV_3 Length=0.002813 units=km
New Line.194382758$P5462283-1 phases=3 Bus1=194382761.1.2.3 Bus2=52241717.1.2.3 LineCode=2_CLP_3PH_12KV_3 Length=0.003699 units=km
New Line.ND64375812$PS3220 phases=4 Bus1=64375812.0.1.2.3 Bus2=163691803.0.1.2.3 LineCode=336_ACSR_3PH_336_ACSR_N_12KV_4 Length=0.045955 units=km
New Line.ND64376225$4406829E phases=3 Bus1=64376225.1.2.3 Bus2=64359834.1.2.3 LineCode=2_ACSR_3PH_12KV_3 Length=0.169659 units=km
New Line.ND64375812$BF34292 phases=2 Bus1=64375812.1.3 Bus2=64361885.1.3 LineCode=4_ACSR_2PH_12KV_2 Length=0.204026 units=km
New Line.ND64376225$ND64362492 phases=4 Bus1=64376225.0.1.2.3 Bus2=64362492.0.1.2.3 LineCode=4/0_CU_3PH_4/0_CU_N_12KV_4 Length=0.088109 units=km
New Line.ND64362492$1608097E phases=4 Bus1=64362492.0.1.2.3 Bus2=185226025.0.1.2.3 LineCode=4/0_CU_3PH_4/0_CU_N_12KV_4 Length=0.050666 units=km
New Line.1608097E$ND164977598 phases=4 Bus1=185226025.0.1.2.3 Bus2=164977598.0.1.2.3 LineCode=4/0_CU_3PH_4/0_CU_N_12KV_4 Length=0.063684 units=km
New Line.ND64376942$FD35429 phases=3 Bus1=64376942.1.2.3 Bus2=64358724.1.2.3 LineCode=336_ACSR_3PH_12KV_3 Length=0.001474 units=km
New Line.BF34292$ND64376860 phases=2 Bus1=64361886.1.3 Bus2=64376860.1.3 LineCode=4_ACSR_2PH_12KV_2 Length=0.04104 units=km
New Line.ND64375997$BF34764 phases=2 Bus1=64375997.2.3 Bus2=64361984.2.3 LineCode=4_ACSR_2PH_12KV_2 Length=0.120903 units=km
New Line.ND164977598$PS0176 phases=4 Bus1=164977598.0.1.2.3 Bus2=52248499.0.1.2.3 LineCode=4/0_CU_3PH_4/0_CU_N_12KV_4 Length=0.173015 units=km
New Line.FD35429$P5043410-1 phases=3 Bus1=64358725.1.2.3 Bus2=64358680.1.2.3 LineCode=2_CLP_3PH_12KV_3 Length=0.129452 units=km
New Line.194436614$P5492996-1 phases=3 Bus1=194436617.1.2.3 Bus2=64359851.1.2.3 LineCode=2_CLP_3PH_12KV_3 Length=0.002424 units=km
New Line.PH099E$243252679 phases=3 Bus1=241103791.1.2.3 Bus2=243252681.1.2.3 LineCode=1/0_JCN_3PH_12KV_3 Length=0.033584 units=km
New Line.PME4199-4$GS4734-3 phases=3 Bus1=52245273.1.2.3 Bus2=52245472.1.2.3 LineCode=750_CLP_3PH_12KV_3 Length=0.141641 units=km
New Line.4423347E$ND64375716 phases=3 Bus1=64360681.1.2.3 Bus2=64375716.1.2.3 LineCode=350_CLP_3PH_12KV_3 Length=0.026828 units=km
New Line.200912288$P5339256-1 phases=3 Bus1=200912291.1.2.3 Bus2=153632704.1.2.3 LineCode=2_CLP_3PH_12KV_3 Length=0.007591 units=km
New Line.ND216243514$216243521 phases=3 Bus1=216243514.1.2.3 Bus2=216243523.1.2.3 LineCode=1/0_CLP_3PH_12KV_3 Length=0.162128 units=km
New Line.PME4199-3$246621917 phases=3 Bus1=52245264.1.2.3 Bus2=246621920.1.2.3 LineCode=2_CLP_3PH_12KV_3 Length=0.002229 units=km
New Line.PME4199-2$GS4198-1 phases=3 Bus1=52245282.1.2.3 Bus2=52244271.1.2.3 LineCode=350_CLP_3PH_12KV_3 Length=0.412591 units=km
New Line.64362031$P5421584-1 phases=3 Bus1=64362034.1.2.3 Bus2=64345403.1.2.3 LineCode=2_CLP_3PH_12KV_3 Length=0.002709 units=km
New Line.152192618$P5493479-1 phases=3 Bus1=152192621.1.2.3 Bus2=64359960.1.2.3 LineCode=2_CLP_3PH_12KV_3 Length=0.004761 units=km
New Line.ND64375716$ND64375717 phases=3 Bus1=64375716.1.2.3 Bus2=64375717.1.2.3 LineCode=350_CLP_3PH_12KV_3 Length=0.072291 units=km
New Line.GS6970-3$173701403 phases=3 Bus1=152192703.1.2.3 Bus2=173701405.1.2.3 LineCode=1/0_JCN_3PH_12KV_3 Length=0.095872 units=km
New Line.ND64375717$PME5710-1 phases=3 Bus1=64375717.1.2.3 Bus2=64360730.1.2.3 LineCode=350_CLP_3PH_12KV_3 Length=0.216814 units=km
New Line.GS6970-4$PME6791-4 phases=3 Bus1=152192712.1.2.3 Bus2=152192870.1.2.3 LineCode=350_JCN_3PH_12KV_3 Length=0.10277 units=km
New Line.243252679$P5712762-1 phases=3 Bus1=243252682.1.2.3 Bus2=243252641.1.2.3 LineCode=1/0_JCN_3PH_12KV_3 Length=0.002615 units=km
New Line.2146433E$ND52249173 phases=4 Bus1=52245153.0.1.2.3 Bus2=52249173.0.1.2.3 LineCode=336_ACSR_3PH_336_ACSR_N_12KV_4 Length=0.053906 units=km
New Line.396E$GS6970-1 phases=3 Bus1=152192568.1.2.3 Bus2=152192685.1.2.3 LineCode=750_JCN_3PH_12KV_3 Length=0.384102 units=km
New Line.246621917$ND52249011 phases=3 Bus1=246621919.1.2.3 Bus2=52249011.1.2.3 LineCode=2_CLP_3PH_12KV_3 Length=0.023806 units=km
New Line.216243521$P5458242-1 phases=3 Bus1=216243524.1.2.3 Bus2=64359760.1.2.3 LineCode=1/0_CLP_3PH_12KV_3 Length=0.002221 units=km
New Line.173701403$PME6972-1 phases=3 Bus1=173701406.1.2.3 Bus2=152193023.1.2.3 LineCode=1/0_JCN_3PH_12KV_3 Length=0.002924 units=km
New Line.ND52249011$P5397983-1 phases=3 Bus1=52249011.1.2.3 Bus2=153632807.1.2.3 LineCode=2_CLP_3PH_12KV_3 Length=0.06512 units=km
New Line.GS4734-2$B5403090T phases=3 Bus1=52245464.1.2.3 Bus2=52248560.1.2.3 LineCode=2_CLP_3PH_12KV_3 Length=0.013032 units=km
New Line.ND52249011$52248562 phases=3 Bus1=52249011.1.2.3 Bus2=52248564.1.2.3 LineCode=2_CLP_3PH_12KV_3 Length=0.029161 units=km
New Line.B5403090T$192775748 phases=3 Bus1=52248560.1.2.3 Bus2=192775750.1.2.3 LineCode=2_CLP_3PH_12KV_3 Length=0.008774 units=km
New Line.PMH4199-1$2346570E phases=3 Bus1=52245225.1.2.3 Bus2=52245291.1.2.3 LineCode=750_CLP_3PH_12KV_3 Length=0.078544 units=km
New Line.2146432E$ND52269209 phases=3 Bus1=52244463.1.2.3 Bus2=52269209.1.2.3 LineCode=2_CLP_3PH_12KV_3 Length=0.073978 units=km
New Line.4238047E$ND64375852 phases=3 Bus1=64345448.1.2.3 Bus2=64375852.1.2.3 LineCode=2_CLP_3PH_12KV_3 Length=0.014559 units=km
New Line.ND64375852$152192618 phases=3 Bus1=64375852.1.2.3 Bus2=152192620.1.2.3 LineCode=2_CLP_3PH_12KV_3 Length=0.15033 units=km
New Line.ND52269209$200912288 phases=3 Bus1=52269209.1.2.3 Bus2=200912290.1.2.3 LineCode=2_CLP_3PH_12KV_3 Length=0.087848 units=km
New Line.ND64375852$64362031 phases=3 Bus1=64375852.1.2.3 Bus2=64362033.1.2.3 LineCode=2_CLP_3PH_12KV_3 Length=0.014622 units=km
New Line.2169773E$ND216243514 phases=3 Bus1=64358664.1.2.3 Bus2=216243514.1.2.3 LineCode=1/0_CLP_3PH_12KV_3 Length=0.089835 units=km
New Line.ND64376860$619744H phases=2 Bus1=64376860.1.3 Bus2=64345292.1.3 LineCode=336_ACSR_2PH_12KV_2 Length=0.129114 units=km
New Line.ND64376860$4869975E phases=2 Bus1=64376860.1.3 Bus2=64345342.1.3 LineCode=4_ACSR_2PH_12KV_2 Length=0.08064 units=km
New Line.619744H$619745H phases=2 Bus1=64345292.1.3 Bus2=64345267.1.3 LineCode=4_ACSR_2PH_12KV_2 Length=0.07948 units=km
New Line.4869975E$619737H phases=2 Bus1=64345342.1.3 Bus2=64345317.1.3 LineCode=4_ACSR_2PH_12KV_2 Length=0.103289 units=km
New Line.PS0176$ND243252598 phases=3 Bus1=64361961.1.2.3 Bus2=243252598.1.2.3 LineCode=4/0_ACSR_3PH_12KV_3 Length=0.027728 units=km
New Line.ND243252598$PH099E phases=3 Bus1=243252598.1.2.3 Bus2=241103790.1.2.3 LineCode=4/0_ACSR_3PH_12KV_3 Length=0.009576 units=km
New Line.ND243252598$4018983E phases=3 Bus1=243252598.1.2.3 Bus2=52248595.1.2.3 LineCode=4/0_ACSR_3PH_12KV_3 Length=0.134908 units=km
New Line.4018983E$ND52267237 phases=4 Bus1=52248594.0.1.2.3 Bus2=52267237.0.1.2.3 LineCode=4/0_CU_3PH_4/0_CU_N_12KV_4 Length=0.096809 units=km
New Line.ND217409531$ND52267237 phases=4 Bus1=52267237.0.1.2.3 Bus2=217409531.0.1.2.3 LineCode=336_ACSR_3PH_336_ACSR_N_12KV_4 Length=0.024929 units=km
New Line.ND52267237$2146433E phases=4 Bus1=52267237.0.1.2.3 Bus2=52245153.0.1.2.3 LineCode=336_ACSR_3PH_336_ACSR_N_12KV_4 Length=0.043802 units=km
New Line.2346570E$ND217409531 phases=4 Bus1=217409531.0.1.2.3 Bus2=52245224.0.1.2.3 LineCode=336_ACSR_3PH_336_ACSR_N_12KV_4 Length=0.002431 units=km
New Line.ND52249173$2146432E phases=3 Bus1=52249173.1.2.3 Bus2=52244462.1.2.3 LineCode=336_ACSR_3PH_12KV_3 Length=0.116542 units=km
New Line.ND52249173$ND52247864 phases=4 Bus1=52249173.0.1.2.3 Bus2=52247864.0.1.2.3 LineCode=336_ACSR_3PH_336_ACSR_N_12KV_4 Length=0.119181 units=km
New Line.ND52247864$RCS6994 phases=4 Bus1=52247864.0.1.2.3 Bus2=153020986.0.1.2.3 LineCode=336_ACSR_3PH_336_ACSR_N_12KV_4 Length=0.059809 units=km
New Line.19249$ND155409142 phases=3 Bus1=-8888882190370.1.2.3 Bus2=155409142.1.2.3 LineCode=1000_CLP_3PH_12KV_3 Length=0.00837 units=km
New Line.ND242923031$ND242923073 phases=3 Bus1=242923031.1.2.3 Bus2=242923073.1.2.3 LineCode=1000_JCN_C_3PH_12KV_3 Length=0.059159 units=km
New Line.793E$1822135E phases=4 Bus1=70424315.0.1.2.3 Bus2=64358754.0.1.2.3 LineCode=336_ATW_3PH_336_ATW_N_12KV_4 Length=0.058211 units=km
New Line.1822135E$ND218959949 phases=4 Bus1=64358754.0.1.2.3 Bus2=218959883.0.1.2.3 LineCode=336_ATW_3PH_336_ATW_N_12KV_4 Length=0.072397 units=km
New Line.ND218959947$ND64376942 phases=4 Bus1=218959901.0.1.2.3 Bus2=64376942.0.1.2.3 LineCode=336_ATW_3PH_336_ATW_N_12KV_4 Length=0.020253 units=km
New Line.ND89969412$ND64376942 phases=4 Bus1=64376942.0.1.2.3 Bus2=89969412.0.1.2.3 LineCode=336_ATW_3PH_336_ATW_N_12KV_4 Length=0.052562 units=km
New Line.PS4941$ND89969412 phases=4 Bus1=89969412.0.1.2.3 Bus2=64362055.0.1.2.3 LineCode=336_ATW_3PH_336_ATW_N_12KV_4 Length=0.209781 units=km
New Line.PS4941$ND177953117 phases=4 Bus1=64362054.0.1.2.3 Bus2=177953117.0.1.2.3 LineCode=336_ATW_3PH_336_ATW_N_12KV_4 Length=0.068051 units=km
New Line.ND177953117$ND241485903 phases=4 Bus1=177953117.0.1.2.3 Bus2=241485903.0.1.2.3 LineCode=336_ATW_3PH_336_ATW_N_12KV_4 Length=0.029493 units=km
New Line.ND241485903$ND152192591 phases=4 Bus1=241485903.0.1.2.3 Bus2=152192591.0.1.2.3 LineCode=336_ATW_3PH_336_ATW_N_12KV_4 Length=0.050807 units=km
New Line.ND152192591$ND176606040 phases=3 Bus1=152192591.1.2.3 Bus2=176606040.1.2.3 LineCode=336_ATW_3PH_12KV_3 Length=0.104249 units=km
New Line.ND152192591$PS9022 phases=4 Bus1=152192591.0.1.2.3 Bus2=242206333.0.1.2.3 LineCode=336_ATW_3PH_336_ATW_N_12KV_4 Length=0.012392 units=km
New Line.ND176606040$PS9021 phases=3 Bus1=176606040.1.2.3 Bus2=241485934.1.2.3 LineCode=336_ATW_3PH_12KV_3 Length=0.003946 units=km
New Line.4326646E$ND176606040 phases=3 Bus1=176606040.1.2.3 Bus2=64343673.1.2.3 LineCode=336_ATW_3PH_12KV_3 Length=0.060868 units=km
New Line.PS9022$396E phases=4 Bus1=242206334.0.1.2.3 Bus2=152192567.0.1.2.3 LineCode=336_ATW_3PH_336_ATW_N_12KV_4 Length=0.001724 units=km
New Line.4326646E$ND64375723 phases=3 Bus1=64343673.1.2.3 Bus2=64375723.1.2.3 LineCode=336_ATW_3PH_12KV_3 Length=0.100481 units=km
New Line.ND64375723$PS9020 phases=3 Bus1=64375723.1.2.3 Bus2=241485968.1.2.3 LineCode=336_ATW_3PH_12KV_3 Length=0.007142 units=km
New Line.PS9019$ND64375723 phases=3 Bus1=64375723.1.2.3 Bus2=245204607.1.2.3 LineCode=336_ATW_3PH_12KV_3 Length=0.006853 units=km
New Line.PS9021$4238047E phases=3 Bus1=241485933.1.2.3 Bus2=64345447.1.2.3 LineCode=336_ATW_3PH_12KV_3 Length=0.002342 units=km
New Line.PS9020$2169773E phases=3 Bus1=241485967.1.2.3 Bus2=64358663.1.2.3 LineCode=336_ATW_3PH_12KV_3 Length=0.003073 units=km
New Line.4423347E$PS9019 phases=3 Bus1=245204606.1.2.3 Bus2=64360680.1.2.3 LineCode=336_ATW_3PH_12KV_3 Length=0.002841 units=km
New Line.ND241485903$176606068 phases=4 Bus1=241485903.0.1.2.3 Bus2=-777777241485903.0.1.2.3 LineCode=336_ATW_3PH_336_ATW_N_12KV_4 Length=0.010122 units=km

! Switches
New Line.5575937:GS6601-3 phases=3 Bus1=105731026.1.2.3 Bus2=105731055.1.2.3 switch=y r1=0.001 x1=0.001 r0=0.001 x0=0.001 Length=0.001 units=km enabled=false
New Line.5636985:GS5881-2 phases=3 Bus1=71057194.1.2.3 Bus2=71057213.1.2.3 switch=y r1=0.001 x1=0.001 r0=0.001 x0=0.001 Length=0.001 units=km enabled=false
New Line.5043657:GS5882-4 phases=3 Bus1=106284795.1.2.3 Bus2=106284826.1.2.3 switch=y r1=0.001 x1=0.001 r0=0.001 x0=0.001 Length=0.001 units=km enabled=false
New Line.5448355:PME5710-2 phases=3 Bus1=64360694.1.2.3 Bus2=64360721.1.2.3 switch=y r1=0.001 x1=0.001 r0=0.001 x0=0.001 Length=0.001 units=km enabled=false
New Line.5628059:GS6970-2 phases=3 Bus1=152192665.1.2.3 Bus2=152192694.1.2.3 switch=y r1=0.001 x1=0.001 r0=0.001 x0=0.001 Length=0.001 units=km enabled=false
New Line.WHISPER$WEIRICK_GS5881-3$GS5881-3 phases=3 Bus1=71057229.1.2.3 Bus2=-77777771057229.1.2.3 switch=y r1=0.001 x1=0.001 r0=0.001 x0=0.001 Length=0.001 units=km
New Line.WHISPER$WEIRICK_GS8196-3$GS8196-3 phases=3 Bus1=207423850.1.2.3 Bus2=-777777207423850.1.2.3 switch=y r1=0.001 x1=0.001 r0=0.001 x0=0.001 Length=0.001 units=km
New Line.WHISPER$HARLOW_GS4734-1$GS4734-1 phases=3 Bus1=52245456.1.2.3 Bus2=-77777752245456.1.2.3 switch=y r1=0.001 x1=0.001 r0=0.001 x0=0.001 Length=0.001 units=km
New Line.WHISPER$PALACE_PS3220$PS3220 phases=3 Bus1=64361857.1.2.3 Bus2=-77777764361857.1.2.3 switch=y r1=0.001 x1=0.001 r0=0.001 x0=0.001 Length=0.001 units=km
New Line.WHISPER$WEIRICK_RCS6994$RCS6994 phases=3 Bus1=153020987.1.2.3 Bus2=-777777153020987.1.2.3 switch=y r1=0.001 x1=0.001 r0=0.001 x0=0.001 Length=0.001 units=km
New Line.64359555$P5193526 phases=3 Bus1=64359548.1.2.3 Bus2=64359549.1.2.3 switch=y r1=0.001 x1=0.001 r0=0.001 x0=0.001 Length=0.001 units=km
New Line.105730883$105730907 phases=3 Bus1=105730887.1.2.3 Bus2=105730911.1.2.3 switch=y r1=0.001 x1=0.001 r0=0.001 x0=0.001 Length=0.001 units=km
New Line.105730907$105730891 phases=3 Bus1=105730911.1.2.3 Bus2=105730895.1.2.3 switch=y r1=0.001 x1=0.001 r0=0.001 x0=0.001 Length=0.001 units=km
New Line.105961613 phases=3 Bus1=105961615.1.2.3 Bus2=105961616.1.2.3 switch=y r1=0.001 x1=0.001 r0=0.001 x0=0.001 Length=0.001 units=km
New Line.105961731 phases=3 Bus1=105961733.1.2.3 Bus2=105961734.1.2.3 switch=y r1=0.001 x1=0.001 r0=0.001 x0=0.001 Length=0.001 units=km
New Line.105961741 phases=3 Bus1=105961743.1.2.3 Bus2=105961744.1.2.3 switch=y r1=0.001 x1=0.001 r0=0.001 x0=0.001 Length=0.001 units=km
New Line.105730891$105730899 phases=3 Bus1=105730895.1.2.3 Bus2=105730903.1.2.3 switch=y r1=0.001 x1=0.001 r0=0.001 x0=0.001 Length=0.001 units=km
New Line.107465276 phases=3 Bus1=107465279.1.2.3 Bus2=107465278.1.2.3 switch=y r1=0.001 x1=0.001 r0=0.001 x0=0.001 Length=0.001 units=km
New Line.176062588 phases=3 Bus1=176062590.1.2.3 Bus2=176062591.1.2.3 switch=y r1=0.001 x1=0.001 r0=0.001 x0=0.001 Length=0.001 units=km
New Line.105961799 phases=3 Bus1=105961801.1.2.3 Bus2=105961802.1.2.3 switch=y r1=0.001 x1=0.001 r0=0.001 x0=0.001 Length=0.001 units=km
New Line.5604694:J694-1 phases=3 Bus1=105730886.1.2.3 Bus2=105730887.1.2.3 switch=y r1=0.001 x1=0.001 r0=0.001 x0=0.001 Length=0.001 units=km
New Line.5575941:J941-3 phases=3 Bus1=105961440.1.2.3 Bus2=105961439.1.2.3 switch=y r1=0.001 x1=0.001 r0=0.001 x0=0.001 Length=0.001 units=km
New Line.5604694:J694-2 phases=3 Bus1=105730911.1.2.3 Bus2=105730910.1.2.3 switch=y r1=0.001 x1=0.001 r0=0.001 x0=0.001 Length=0.001 units=km
New Line.5604694:J694-3 phases=3 Bus1=105730895.1.2.3 Bus2=105730894.1.2.3 switch=y r1=0.001 x1=0.001 r0=0.001 x0=0.001 Length=0.001 units=km
New Line.5604694:J694-4 phases=3 Bus1=105730903.1.2.3 Bus2=105730902.1.2.3 switch=y r1=0.001 x1=0.001 r0=0.001 x0=0.001 Length=0.001 units=km
New Line.5575939:P5575939-A phases=3 Bus1=153375645.1.2.3 Bus2=153375629.1.2.3 switch=y r1=0.001 x1=0.001 r0=0.001 x0=0.001 Length=0.001 units=km
New Line.5575939:P5575939-B phases=3 Bus1=153375629.1.2.3 Bus2=153375628.1.2.3 switch=y r1=0.001 x1=0.001 r0=0.001 x0=0.001 Length=0.001 units=km
New Line.5575939:P5575939-T phases=3 Bus1=153375629.1.2.3 Bus2=153375637.1.2.3 switch=y r1=0.001 x1=0.001 r0=0.001 x0=0.001 Length=0.001 units=km
New Line.5575943:P5575943-1 phases=3 Bus1=105961543.1.2.3 Bus2=105961544.1.2.3 switch=y r1=0.001 x1=0.001 r0=0.001 x0=0.001 Length=0.001 units=km
New Line.5575944:P5575944-1 phases=3 Bus1=105961653.1.2.3 Bus2=105961654.1.2.3 switch=y r1=0.001 x1=0.001 r0=0.001 x0=0.001 Length=0.001 units=km
New Line.5575945:P5575945-1 phases=3 Bus1=105961695.1.2.3 Bus2=105961696.1.2.3 switch=y r1=0.001 x1=0.001 r0=0.001 x0=0.001 Length=0.001 units=km
New Line.5383727:P5383727-1 phases=3 Bus1=153632757.1.2.3 Bus2=153632758.1.2.3 switch=y r1=0.001 x1=0.001 r0=0.001 x0=0.001 Length=0.001 units=km
New Line.5429387:P5429387-1 phases=3 Bus1=107465350.1.2.3 Bus2=107465351.1.2.3 switch=y r1=0.001 x1=0.001 r0=0.001 x0=0.001 Length=0.001 units=km
New Line.5575940:P5575940-1 phases=3 Bus1=105961763.1.2.3 Bus2=105961764.1.2.3 switch=y r1=0.001 x1=0.001 r0=0.001 x0=0.001 Length=0.001 units=km
New Line.PME4497-2$PME4497-1 phases=3 Bus1=64358584.1.2.3 Bus2=64358583.1.2.3 switch=y r1=0.001 x1=0.001 r0=0.001 x0=0.001 Length=0.001 units=km
New Line.PME5845-2$PME5845-1 phases=3 Bus1=67853838.1.2.3 Bus2=67853837.1.2.3 switch=y r1=0.001 x1=0.001 r0=0.001 x0=0.001 Length=0.001 units=km
New Line.GS6601-3$GS6601-4 phases=3 Bus1=105731026.1.2.3 Bus2=105731032.1.2.3 switch=y r1=0.001 x1=0.001 r0=0.001 x0=0.001 Length=0.001 units=km
New Line.192775721 phases=3 Bus1=192775724.1.2.3 Bus2=192775723.1.2.3 switch=y r1=0.001 x1=0.001 r0=0.001 x0=0.001 Length=0.001 units=km
New Line.173701430 phases=3 Bus1=173701432.1.2.3 Bus2=173701433.1.2.3 switch=y r1=0.001 x1=0.001 r0=0.001 x0=0.001 Length=0.001 units=km
New Line.241069476 phases=3 Bus1=241069478.1.2.3 Bus2=241069479.1.2.3 switch=y r1=0.001 x1=0.001 r0=0.001 x0=0.001 Length=0.001 units=km
New Line.105961225$105961249 phases=3 Bus1=105961229.1.2.3 Bus2=105961253.1.2.3 switch=y r1=0.001 x1=0.001 r0=0.001 x0=0.001 Length=0.001 units=km
New Line.196603517 phases=3 Bus1=196603520.1.2.3 Bus2=196603519.1.2.3 switch=y r1=0.001 x1=0.001 r0=0.001 x0=0.001 Length=0.001 units=km
New Line.200130832 phases=3 Bus1=200130834.1.2.3 Bus2=200130835.1.2.3 switch=y r1=0.001 x1=0.001 r0=0.001 x0=0.001 Length=0.001 units=km
New Line.238240250 phases=3 Bus1=238240253.1.2.3 Bus2=238240252.1.2.3 switch=y r1=0.001 x1=0.001 r0=0.001 x0=0.001 Length=0.001 units=km
New Line.105961249$105961233 phases=3 Bus1=105961253.1.2.3 Bus2=105961237.1.2.3 switch=y r1=0.001 x1=0.001 r0=0.001 x0=0.001 Length=0.001 units=km
New Line.152193091$P5628062 phases=3 Bus1=152193084.1.2.3 Bus2=152193085.1.2.3 switch=y r1=0.001 x1=0.001 r0=0.001 x0=0.001 Length=0.001 units=km