! OpenDSS script generated from multiconductor network
Clear

New Circuit.mc_network basekv=12.0 pu=1.000000 angle=0.00 frequency=60.0 phases=3 Mvasc3=143993 Mvasc1=47997.6
~ bus1=-8888882180117.1.2.3

! Line codes
New LineCode.336_ACSR_3PH_336_ACSR_N_12KV_4 nphases=4 units=km Rmatrix=[ 0.106848 | 0 0.106848 | 0 0 0.106848 | 0 0 0 0.106848 ] Xmatrix=[ 0.213078 | 0 0.213078 | 0 0 0.213078 | 0 0 0 0.213078 ] Cmatrix=[ 0 | 0 0 | 0 0 0 | 0 0 0 0 ]
New LineCode.336_ACSR_3PH_12KV_3 nphases=3 units=km Rmatrix=[ 0.015078 | 0 0.015078 | 0 0 0.015078 ] Xmatrix=[ 0.033765 | 0 0.033765 | 0 0 0.033765 ] Cmatrix=[ 0 | 0 0 | 0 0 0 ]
New LineCode.1000_CLP_3PH_12KV_3 nphases=3 units=km Rmatrix=[ 0.023202 | 0 0.023202 | 0 0 0.023202 ] Xmatrix=[ 0.03512 | 0 0.03512 | 0 0 0.03512 ] Cmatrix=[ 0 | 0 0 | 0 0 0 ]
New LineCode.350_JCN_3PH_12KV_3 nphases=3 units=km Rmatrix=[ 0.000338 | 0 0.000338 | 0 0 0.000338 ] Xmatrix=[ 0.000256 | 0 0.000256 | 0 0 0.000256 ] Cmatrix=[ 0 | 0 0 | 0 0 0 ]
New LineCode.2_CLP_3PH_12KV_3 nphases=3 units=km Rmatrix=[ 0.041968 | 0 0.041968 | 0 0 0.041968 ] Xmatrix=[ 0.008846 | 0 0.008846 | 0 0 0.008846 ] Cmatrix=[ 0 | 0 0 | 0 0 0 ]
New LineCode.1000_JCN_3PH_12KV_3 nphases=3 units=km Rmatrix=[ 0.117752 | 0 0.117752 | 0 0 0.117752 ] Xmatrix=[ 0.178242 | 0 0.178242 | 0 0 0.178242 ] Cmatrix=[ 0 | 0 0 | 0 0 0 ]
New LineCode.1/0_JCN_3PH_12KV_3 nphases=3 units=km Rmatrix=[ 0.001923 | 0 0.001923 | 0 0 0.001923 ] Xmatrix=[ 0.000588 | 0 0.000588 | 0 0 0.000588 ] Cmatrix=[ 0 | 0 0 | 0 0 0 ]
New LineCode.2_CLP_1PH_12KV_1 nphases=1 units=km Rmatrix=[ 0.086364 ] Xmatrix=[ 0.018204 ] Cmatrix=[ 0 ]
New LineCode.1/0_ACSR_3PH_12KV_3 nphases=3 units=km Rmatrix=[ 0.108228 | 0 0.108228 | 0 0 0.108228 ] Xmatrix=[ 0.086171 | 0 0.086171 | 0 0 0.086171 ] Cmatrix=[ 0 | 0 0 | 0 0 0 ]
New LineCode.1/0_CLP_3PH_12KV_3 nphases=3 units=km Rmatrix=[ 0.016335 | 0 0.016335 | 0 0 0.016335 ] Xmatrix=[ 0.004993 | 0 0.004993 | 0 0 0.004993 ] Cmatrix=[ 0 | 0 0 | 0 0 0 ]
New LineCode.2_CLP_2PH_12KV_2 nphases=2 units=km Rmatrix=[ 0.005868 | 0 0.005868 ] Xmatrix=[ 0.001237 | 0 0.001237 ] Cmatrix=[ 0 | 0 0 ]
New LineCode.1/0_CLP_2PH_12KV_2 nphases=2 units=km Rmatrix=[ 0.185494 | 0 0.185494 ] Xmatrix=[ 0.056696 | 0 0.056696 ] Cmatrix=[ 0 | 0 0 ]
New LineCode.1/0_AL_3PH_12KV_3 nphases=3 units=km Rmatrix=[ 0.06472 | 0 0.06472 | 0 0 0.06472 ] Xmatrix=[ 0.019781 | 0 0.019781 | 0 0 0.019781 ] Cmatrix=[ 0 | 0 0 | 0 0 0 ]
New LineCode.1/0_CLP_1PH_12KV_1 nphases=1 units=km Rmatrix=[ 0.070773 ] Xmatrix=[ 0.021632 ] Cmatrix=[ 0 ]
New LineCode.4_ACSR_3PH_12KV_3 nphases=3 units=km Rmatrix=[ 0.163027 | 0 0.163027 | 0 0 0.163027 ] Xmatrix=[ 0.059822 | 0 0.059822 | 0 0 0.059822 ] Cmatrix=[ 0 | 0 0 | 0 0 0 ]
New LineCode.6_CU_3PH_12KV_3 nphases=3 units=km Rmatrix=[ 0.43871 | 0 0.43871 | 0 0 0.43871 ] Xmatrix=[ 0.155504 | 0 0.155504 | 0 0 0.155504 ] Cmatrix=[ 0 | 0 0 | 0 0 0 ]
New LineCode.4_CU_3PH_12KV_3 nphases=3 units=km Rmatrix=[ 0.058315 | 0 0.058315 | 0 0 0.058315 ] Xmatrix=[ 0.031782 | 0 0.031782 | 0 0 0.031782 ] Cmatrix=[ 0 | 0 0 | 0 0 0 ]
New LineCode.4_ACSR_2PH_12KV_2 nphases=2 units=km Rmatrix=[ 0.160066 | 0 0.160066 ] Xmatrix=[ 0.058735 | 0 0.058735 ] Cmatrix=[ 0 | 0 0 ]
New LineCode.6_CU_3PH_6_CU_N_12KV_4 nphases=4 units=km Rmatrix=[ 1.739646 | 0 1.739646 | 0 0 1.739646 | 0 0 0 1.739646 ] Xmatrix=[ 0.561826 | 0 0.561826 | 0 0 0.561826 | 0 0 0 0.561826 ] Cmatrix=[ 0 | 0 0 | 0 0 0 | 0 0 0 0 ]
New LineCode.6_CU_2PH_12KV_2 nphases=2 units=km Rmatrix=[ 0.428056 | 0 0.428056 ] Xmatrix=[ 0.151727 | 0 0.151727 ] Cmatrix=[ 0 | 0 0 ]
New LineCode.1/0_CU_3PH_12KV_3 nphases=3 units=km Rmatrix=[ 0.003362 | 0 0.003362 | 0 0 0.003362 ] Xmatrix=[ 0.004187 | 0 0.004187 | 0 0 0.004187 ] Cmatrix=[ 0 | 0 0 | 0 0 0 ]
New LineCode.4_ACSR_3PH_12KV_2 nphases=2 units=km Rmatrix=[ 0.163027 | 0 0.163027 ] Xmatrix=[ 0.059822 | 0 0.059822 ] Cmatrix=[ 0 | 0 0 ]
New LineCode.1/0_ACSR_2PH_12KV_2 nphases=2 units=km Rmatrix=[ 0.323591 | 0 0.323591 ] Xmatrix=[ 0.257642 | 0 0.257642 ] Cmatrix=[ 0 | 0 0 ]
New LineCode.2_ACSR_2PH_12KV_2 nphases=2 units=km Rmatrix=[ 0.098634 | 0 0.098634 ] Xmatrix=[ 0.053027 | 0 0.053027 ] Cmatrix=[ 0 | 0 0 ]
New LineCode.2_JCN_2PH_12KV_2 nphases=2 units=km Rmatrix=[ 0.027307 | 0 0.027307 ] Xmatrix=[ 0.005756 | 0 0.005756 ] Cmatrix=[ 0 | 0 0 ]
New LineCode.350_CLP_3PH_12KV_3 nphases=3 units=km Rmatrix=[ 0.016806 | 0 0.016806 | 0 0 0.016806 ] Xmatrix=[ 0.012769 | 0 0.012769 | 0 0 0.012769 ] Cmatrix=[ 0 | 0 0 | 0 0 0 ]
New LineCode.350_CLP_1PH_12KV_1 nphases=1 units=km Rmatrix=[ 0.027099 ] Xmatrix=[ 0.02059 ] Cmatrix=[ 0 ]
New LineCode.350_CLP_2PH_12KV_2 nphases=2 units=km Rmatrix=[ 0.000945 | 0 0.000945 ] Xmatrix=[ 0.000718 | 0 0.000718 ] Cmatrix=[ 0 | 0 0 ]
New LineCode.2_CIC_3PH_12KV_3 nphases=3 units=km Rmatrix=[ 0.054821 | 0 0.054821 | 0 0 0.054821 ] Xmatrix=[ 0.011555 | 0 0.011555 | 0 0 0.011555 ] Cmatrix=[ 0 | 0 0 | 0 0 0 ]
New LineCode.2_CIC_2PH_12KV_2 nphases=2 units=km Rmatrix=[ 0.190037 | 0 0.190037 ] Xmatrix=[ 0.040056 | 0 0.040056 ] Cmatrix=[ 0 | 0 0 ]
New LineCode.2/0_CU_3PH_12KV_3 nphases=3 units=km Rmatrix=[ 0.033777 | 0 0.033777 | 0 0 0.033777 ] Xmatrix=[ 0.052096 | 0 0.052096 | 0 0 0.052096 ] Cmatrix=[ 0 | 0 0 | 0 0 0 ]
New LineCode.1/0_ATW_2PH_12KV_2 nphases=2 units=km Rmatrix=[ 1e-05 | 0 1e-05 ] Xmatrix=[ 1e-05 | 0 1e-05 ] Cmatrix=[ 0 | 0 0 ]
New LineCode.1/0_ATW_3PH_12KV_3 nphases=3 units=km Rmatrix=[ 1e-05 | 0 1e-05 | 0 0 1e-05 ] Xmatrix=[ 1e-05 | 0 1e-05 | 0 0 1e-05 ] Cmatrix=[ 0 | 0 0 | 0 0 0 ]
New LineCode.336_ATW_3PH_336_ATW_N_12KV_4 nphases=4 units=km Rmatrix=[ 1e-05 | 0 1e-05 | 0 0 1e-05 | 0 0 0 1e-05 ] Xmatrix=[ 1e-05 | 0 1e-05 | 0 0 1e-05 | 0 0 0 1e-05 ] Cmatrix=[ 0 | 0 0 | 0 0 0 | 0 0 0 0 ]
New LineCode.336_ATW_3PH_12KV_3 nphases=3 units=km Rmatrix=[ 1e-05 | 0 1e-05 | 0 0 1e-05 ] Xmatrix=[ 1e-05 | 0 1e-05 | 0 0 1e-05 ] Cmatrix=[ 0 | 0 0 | 0 0 0 ]
New LineCode.1/0_ATW_2PH_12KV_3_N nphases=3 units=km Rmatrix=[ 1e-05 | 0 1e-05 | 0 0 1e-05 ] Xmatrix=[ 1e-05 | 0 1e-05 | 0 0 1e-05 ] Cmatrix=[ 0 | 0 0 | 0 0 0 ]
New LineCode.336_ATW_2PH_12KV_2 nphases=2 units=km Rmatrix=[ 1e-05 | 0 1e-05 ] Xmatrix=[ 1e-05 | 0 1e-05 ] Cmatrix=[ 0 | 0 0 ]

! Lines
New Line.ND173615823$PS0161 phases=4 Bus1=18622506.0.1.2.3 Bus2=173615823.0.1.2.3 LineCode=336_ACSR_3PH_336_ACSR_N_12KV_4 Length=1.06396 units=km
New Line.4678214EPH$ND173615823 phases=4 Bus1=173615823.0.1.2.3 Bus2=101837762.0.1.2.3 LineCode=336_ACSR_3PH_336_ACSR_N_12KV_4 Length=0.619497 units=km
New Line.PH6842$ND173615823 phases=3 Bus1=173615823.1.2.3 Bus2=173615784.1.2.3 LineCode=336_ACSR_3PH_12KV_3 Length=0.003538 units=km
New Line.4678214EPH$ND103106557 phases=3 Bus1=101837763.1.2.3 Bus2=103106557.1.2.3 LineCode=1000_CLP_3PH_12KV_3 Length=0.131046 units=km
New Line.173615988$PH6842 phases=3 Bus1=173615785.1.2.3 Bus2=173615990.1.2.3 LineCode=350_JCN_3PH_12KV_3 Length=0.187728 units=km
New Line.GS5370-1$ND103106557 phases=3 Bus1=103106557.1.2.3 Bus2=101837531.1.2.3 LineCode=1000_CLP_3PH_12KV_3 Length=0.419926 units=km
New Line.ND103106557$GS5367-2 phases=3 Bus1=103106557.1.2.3 Bus2=101837872.1.2.3 LineCode=1000_CLP_3PH_12KV_3 Length=0.127032 units=km
New Line.173615988$RCSG925-4 phases=3 Bus1=173615991.1.2.3 Bus2=173615898.1.2.3 LineCode=350_JCN_3PH_12KV_3 Length=0.004732 units=km
New Line.ND169167098$GS5370-2 phases=3 Bus1=101837523.1.2.3 Bus2=169167098.1.2.3 LineCode=2_CLP_3PH_12KV_3 Length=0.126743 units=km
New Line.PME8125-4$ND169167098 phases=3 Bus1=169167098.1.2.3 Bus2=101838724.1.2.3 LineCode=2_CLP_3PH_12KV_3 Length=0.0355 units=km
New Line.GS5370-3$4605854E phases=3 Bus1=101837539.1.2.3 Bus2=169165505.1.2.3 LineCode=1000_JCN_3PH_12KV_3 Length=1.39385 units=km
New Line.ND169167098$X5508849T1T1 phases=3 Bus1=169167098.1.2.3 Bus2=169167075.1.2.3 LineCode=2_CLP_3PH_12KV_3 Length=0.004226 units=km
New Line.173616043$RCSG925-3 phases=3 Bus1=173615890.1.2.3 Bus2=173616046.1.2.3 LineCode=1/0_JCN_3PH_12KV_3 Length=0.003348 units=km
New Line.4649507E$GS5370-4 phases=3 Bus1=101837547.1.2.3 Bus2=101837454.1.2.3 LineCode=1000_CLP_3PH_12KV_3 Length=0.074228 units=km
New Line.RCSG925-2$173616031 phases=3 Bus1=173615874.1.2.3 Bus2=173616034.1.2.3 LineCode=1/0_JCN_3PH_12KV_3 Length=0.002507 units=km
New Line.X5508849T1T1$P5508858-1 phases=3 Bus1=169167074.1.2.3 Bus2=169167037.1.2.3 LineCode=1/0_JCN_3PH_12KV_3 Length=0.100726 units=km
New Line.173616053$RCSG925-1 phases=3 Bus1=173615882.1.2.3 Bus2=173616056.1.2.3 LineCode=350_JCN_3PH_12KV_3 Length=0.001526 units=km
New Line.4841513E$173616043 phases=3 Bus1=173616045.1.2.3 Bus2=173616254.1.2.3 LineCode=1/0_JCN_3PH_12KV_3 Length=0.132482 units=km
New Line.PME8125-2$P5588136-2 phases=1 Bus1=101838734.2 Bus2=107961255.2 LineCode=2_CLP_1PH_12KV_1 Length=0.231269 units=km
New Line.173616031$4841511E phases=3 Bus1=173616033.1.2.3 Bus2=173616213.1.2.3 LineCode=1/0_JCN_3PH_12KV_3 Length=0.056317 units=km
New Line.4649507E$955286E phases=3 Bus1=101837453.1.2.3 Bus2=18620195.1.2.3 LineCode=336_ACSR_3PH_12KV_3 Length=0.268725 units=km
New Line.PME8125-1$ND101839390 phases=1 Bus1=101838752.3 Bus2=101839390.3 LineCode=2_CLP_1PH_12KV_1 Length=0.228583 units=km
New Line.PME8125-3$ND101839489 phases=1 Bus1=101838743.1 Bus2=101839489.1 LineCode=2_CLP_1PH_12KV_1 Length=0.256536 units=km
New Line.173616053$P5634925 phases=3 Bus1=173616055.1.2.3 Bus2=173616160.1.2.3 LineCode=350_JCN_3PH_12KV_3 Length=0.002745 units=km
New Line.4841513E$173616279 phases=3 Bus1=173616253.1.2.3 Bus2=173616284.1.2.3 LineCode=1/0_JCN_3PH_12KV_3 Length=0.043092 units=km
New Line.101839582$ND101839390 phases=1 Bus1=101839390.3 Bus2=101839584.3 LineCode=2_CLP_1PH_12KV_1 Length=0.091735 units=km
New Line.ND101839489$101839609 phases=1 Bus1=101839489.1 Bus2=101839611.1 LineCode=2_CLP_1PH_12KV_1 Length=0.128557 units=km
New Line.ND101839489$101839634 phases=1 Bus1=101839489.1 Bus2=101839636.1 LineCode=2_CLP_1PH_12KV_1 Length=0.06653 units=km
New Line.101839723$ND101839489 phases=1 Bus1=101839489.1 Bus2=101839725.1 LineCode=2_CLP_1PH_12KV_1 Length=0.126871 units=km
New Line.101839875$ND101839390 phases=1 Bus1=101839390.3 Bus2=101839877.3 LineCode=2_CLP_1PH_12KV_1 Length=0.428352 units=km
New Line.4841511E$173616194 phases=3 Bus1=173616212.1.2.3 Bus2=173616199.1.2.3 LineCode=1/0_ACSR_3PH_12KV_3 Length=0.042684 units=km
New Line.P5588136-1$P5588137-2 phases=1 Bus1=107961246.2 Bus2=107961339.2 LineCode=2_CLP_1PH_12KV_1 Length=0.109235 units=km
New Line.101839582$P5588128-2 phases=1 Bus1=101839585.3 Bus2=101838923.3 LineCode=2_CLP_1PH_12KV_1 Length=0.002358 units=km
New Line.101839723$ND101839222 phases=1 Bus1=101839726.1 Bus2=101839222.1 LineCode=2_CLP_1PH_12KV_1 Length=0.003907 units=km
New Line.101839875$P5588134-1 phases=1 Bus1=101839878.3 Bus2=101839245.3 LineCode=2_CLP_1PH_12KV_1 Length=0.001374 units=km
New Line.101839609$P5588133-2 phases=1 Bus1=101839612.1 Bus2=101839426.1 LineCode=2_CLP_1PH_12KV_1 Length=0.003187 units=km
New Line.101839634$P5588132-1 phases=1 Bus1=101839637.1 Bus2=101839508.1 LineCode=2_CLP_1PH_12KV_1 Length=0.001108 units=km
New Line.ND101839222$ND169163919 phases=1 Bus1=101839222.1 Bus2=169163919.1 LineCode=2_CLP_1PH_12KV_1 Length=0.005548 units=km
New Line.P5588129-1$ND169163919 phases=1 Bus1=169163919.1 Bus2=101838987.1 LineCode=2_CLP_1PH_12KV_1 Length=0.006646 units=km
New Line.ND169163919$101839684 phases=1 Bus1=169163919.1 Bus2=101839687.1 LineCode=2_CLP_1PH_12KV_1 Length=0.000671 units=km
New Line.P5588137-1$ND107961572 phases=1 Bus1=107961330.2 Bus2=107961572.2 LineCode=2_CLP_1PH_12KV_1 Length=0.061672 units=km
New Line.P5588134-2$101839820 phases=1 Bus1=101839254.3 Bus2=101839823.3 LineCode=2_CLP_1PH_12KV_1 Length=0.001466 units=km
New Line.ND107961572$P5588139-2 phases=1 Bus1=107961572.2 Bus2=107961422.2 LineCode=2_CLP_1PH_12KV_1 Length=0.153882 units=km
New Line.P5588140-2$ND107961572 phases=1 Bus1=107961572.2 Bus2=107961679.2 LineCode=2_CLP_1PH_12KV_1 Length=0.121128 units=km
New Line.101839684$101839659 phases=1 Bus1=101839686.1 Bus2=101839661.1 LineCode=2_CLP_1PH_12KV_1 Length=0.147167 units=km
New Line.P5588129-2$101839748 phases=1 Bus1=101838996.1 Bus2=101839751.1 LineCode=2_CLP_1PH_12KV_1 Length=0.002231 units=km
New Line.101839820$101839845 phases=1 Bus1=101839822.3 Bus2=101839847.3 LineCode=2_CLP_1PH_12KV_1 Length=0.172124 units=km
New Line.ND106834790$ND45075174 phases=3 Bus1=106834790.1.2.3 Bus2=45075174.1.2.3 LineCode=1/0_ACSR_3PH_12KV_3 Length=0.022976 units=km
New Line.PS1210$ND45075174 phases=3 Bus1=45075174.1.2.3 Bus2=45034264.1.2.3 LineCode=1/0_ACSR_3PH_12KV_3 Length=0.034519 units=km
New Line.4788459E$170197291 phases=3 Bus1=170197091.1.2.3 Bus2=170197293.1.2.3 LineCode=1/0_JCN_3PH_12KV_3 Length=0.178946 units=km
New Line.101839659$P5588130-2 phases=1 Bus1=101839662.1 Bus2=101839156.1 LineCode=2_CLP_1PH_12KV_1 Length=0.002295 units=km
New Line.P5588140-1$P5588141-1 phases=1 Bus1=107961670.2 Bus2=107961494.2 LineCode=2_CLP_1PH_12KV_1 Length=0.096138 units=km
New Line.1821115E$ND99333447 phases=3 Bus1=99333346.1.2.3 Bus2=99333447.1.2.3 LineCode=1/0_CLP_3PH_12KV_3 Length=0.029652 units=km
New Line.177583315$ND99333447 phases=2 Bus1=99333447.1.2 Bus2=177583317.1.2 LineCode=2_CLP_2PH_12KV_2 Length=0.007215 units=km
New Line.PMC2956-2$ND99333447 phases=3 Bus1=99333447.1.2.3 Bus2=99333496.1.2.3 LineCode=1/0_CLP_3PH_12KV_3 Length=0.550881 units=km
New Line.101839845$P5588135-1 phases=1 Bus1=101839848.3 Bus2=101839313.3 LineCode=2_CLP_1PH_12KV_1 Length=0.001953 units=km
New Line.101839773$101839748 phases=1 Bus1=101839750.1 Bus2=101839775.1 LineCode=2_CLP_1PH_12KV_1 Length=0.191802 units=km
New Line.170197291$RCSG916-3 phases=3 Bus1=170197294.1.2.3 Bus2=170197141.1.2.3 LineCode=1/0_JCN_3PH_12KV_3 Length=0.003543 units=km
New Line.101839773$P5588131-1 phases=1 Bus1=101839776.1 Bus2=101839063.1 LineCode=2_CLP_1PH_12KV_1 Length=0.001781 units=km
New Line.P5588141-2$P5588142-2 phases=1 Bus1=107961503.2 Bus2=107961598.2 LineCode=2_CLP_1PH_12KV_1 Length=0.145709 units=km
New Line.ND206747558$PS1290 phases=3 Bus1=206747558.1.2.3 Bus2=237173288.1.2.3 LineCode=336_ACSR_3PH_12KV_3 Length=0.005943 units=km
New Line.RCSG916-2$170197303 phases=3 Bus1=170197133.1.2.3 Bus2=170197306.1.2.3 LineCode=1/0_JCN_3PH_12KV_3 Length=0.002739 units=km
New Line.177583315$P5451515-2 phases=2 Bus1=177583318.1.2 Bus2=99333385.1.2 LineCode=2_CLP_2PH_12KV_2 Length=0.005524 units=km
New Line.PS1290$4244495E phases=3 Bus1=237173289.1.2.3 Bus2=206747535.1.2.3 LineCode=336_ACSR_3PH_12KV_3 Length=0.001982 units=km
New Line.RCSG916-1$170197313 phases=3 Bus1=170197125.1.2.3 Bus2=170197316.1.2.3 LineCode=1/0_JCN_3PH_12KV_3 Length=0.003923 units=km
New Line.170197303$P5634916 phases=3 Bus1=170197305.1.2.3 Bus2=170197400.1.2.3 LineCode=1/0_JCN_3PH_12KV_3 Length=0.005817 units=km
New Line.PMC2956-1$99335137 phases=3 Bus1=99333487.1.2.3 Bus2=99335139.1.2.3 LineCode=1/0_CLP_3PH_12KV_3 Length=0.12314 units=km
New Line.RCSG161-1$4244495E phases=3 Bus1=206747536.1.2.3 Bus2=206747599.1.2.3 LineCode=350_JCN_3PH_12KV_3 Length=0.005037 units=km
New Line.4244499E$RCSG268-1 phases=3 Bus1=167843875.1.2.3 Bus2=167843962.1.2.3 LineCode=350_JCN_3PH_12KV_3 Length=0.0801 units=km
New Line.170197323$170197313 phases=3 Bus1=170197315.1.2.3 Bus2=170197325.1.2.3 LineCode=1/0_JCN_3PH_12KV_3 Length=0.008745 units=km
New Line.4118473E$BS7599-1 phases=2 Bus1=44986920.2.3 Bus2=44984803.2.3 LineCode=1/0_CLP_2PH_12KV_2 Length=0.01347 units=km
New Line.FD92510$BS1802-1 phases=3 Bus1=44984636.1.2.3 Bus2=44986482.1.2.3 LineCode=1/0_AL_3PH_12KV_3 Length=0.155016 units=km
New Line.99335137$ND99334358 phases=3 Bus1=99335140.1.2.3 Bus2=99334358.1.2.3 LineCode=1/0_CLP_3PH_12KV_3 Length=0.017215 units=km
New Line.ND99334358$ND99334376 phases=3 Bus1=99334358.1.2.3 Bus2=99334376.1.2.3 LineCode=1/0_CLP_3PH_12KV_3 Length=0.010014 units=km
New Line.ND99334358$99335164 phases=3 Bus1=99334358.1.2.3 Bus2=99335167.1.2.3 LineCode=1/0_CLP_3PH_12KV_3 Length=0.02704 units=km
New Line.170197323$PME4917-1 phases=3 Bus1=170197326.1.2.3 Bus2=170197233.1.2.3 LineCode=1/0_JCN_3PH_12KV_3 Length=0.005326 units=km
New Line.P5367595-2$BS1802-1 phases=3 Bus1=44986483.1.2.3 Bus2=44986541.1.2.3 LineCode=1/0_AL_3PH_12KV_3 Length=0.042019 units=km
New Line.P5367600-1$BS7599-1 phases=2 Bus1=44984804.2.3 Bus2=44986851.2.3 LineCode=1/0_CLP_2PH_12KV_2 Length=0.263125 units=km
New Line.P5395330-1$4195971E phases=1 Bus1=44987030.2 Bus2=44986936.2 LineCode=1/0_CLP_1PH_12KV_1 Length=0.100392 units=km
New Line.4539279E$4720497E phases=3 Bus1=96190587.1.2.3 Bus2=133590654.1.2.3 LineCode=4_ACSR_3PH_12KV_3 Length=1.21741 units=km
New Line.ND99334376$99335189 phases=3 Bus1=99334376.1.2.3 Bus2=99335192.1.2.3 LineCode=2_CLP_3PH_12KV_3 Length=0.023977 units=km
New Line.ND99334376$99335216 phases=3 Bus1=99334376.1.2.3 Bus2=99335219.1.2.3 LineCode=1/0_CLP_3PH_12KV_3 Length=0.009979 units=km
New Line.2337737E$ND96216607 phases=3 Bus1=96216551.1.2.3 Bus2=96216607.1.2.3 LineCode=2_CLP_3PH_12KV_3 Length=0.203061 units=km
New Line.99335164$P5484619-A phases=3 Bus1=99335166.1.2.3 Bus2=99333798.1.2.3 LineCode=1/0_CLP_3PH_12KV_3 Length=0.158276 units=km
New Line.ND96216607$4589173E phases=3 Bus1=96216607.1.2.3 Bus2=96216581.1.2.3 LineCode=2_CLP_3PH_12KV_3 Length=0.047398 units=km
New Line.ND96216656$ND96216607 phases=3 Bus1=96216607.1.2.3 Bus2=96216656.1.2.3 LineCode=2_CLP_3PH_12KV_3 Length=0.441201 units=km
New Line.99335216$99334776 phases=3 Bus1=99335218.1.2.3 Bus2=99334778.1.2.3 LineCode=1/0_CLP_3PH_12KV_3 Length=0.294755 units=km
New Line.99335189$99335087 phases=3 Bus1=99335191.1.2.3 Bus2=99335089.1.2.3 LineCode=2_CLP_3PH_12KV_3 Length=0.006588 units=km
New Line.P5158026-1$P5367595-1 phases=3 Bus1=44986532.1.2.3 Bus2=44986604.1.2.3 LineCode=1/0_AL_3PH_12KV_3 Length=0.091805 units=km
New Line.P5498675-1$ND96216656 phases=3 Bus1=96216656.1.2.3 Bus2=69167515.1.2.3 LineCode=2_CLP_3PH_12KV_3 Length=0.156228 units=km
New Line.ND96216656$4589174E phases=3 Bus1=96216656.1.2.3 Bus2=96216630.1.2.3 LineCode=2_CLP_3PH_12KV_3 Length=0.050202 units=km
New Line.99335087$P5484617-A phases=3 Bus1=99335090.1.2.3 Bus2=99333709.1.2.3 LineCode=2_CLP_3PH_12KV_3 Length=0.003952 units=km
New Line.P5484619-B$0151924 phases=3 Bus1=99333816.1.2.3 Bus2=99334318.1.2.3 LineCode=1/0_CLP_3PH_12KV_3 Length=0.006138 units=km
New Line.99334776$ND99334420 phases=3 Bus1=99334779.1.2.3 Bus2=99334420.1.2.3 LineCode=1/0_CLP_3PH_12KV_3 Length=0.010854 units=km
New Line.RCS0928$ND37793690 phases=4 Bus1=37793690.0.1.2.3 Bus2=37769577.0.1.2.3 LineCode=336_ACSR_3PH_336_ACSR_N_12KV_4 Length=0.047064 units=km
New Line.ND37793690$ND37769688 phases=3 Bus1=37793690.1.2.3 Bus2=37769688.1.2.3 LineCode=336_ACSR_3PH_12KV_3 Length=0.052332 units=km
New Line.1403710E$ND45074874 phases=3 Bus1=45074874.1.2.3 Bus2=45034132.1.2.3 LineCode=1/0_ACSR_3PH_12KV_3 Length=0.004003 units=km
New Line.ND45075071$4203598E phases=3 Bus1=45009739.1.2.3 Bus2=45075071.1.2.3 LineCode=6_CU_3PH_12KV_3 Length=0.035762 units=km
New Line.541903E$ND45076893 phases=3 Bus1=44984625.1.2.3 Bus2=45076893.1.2.3 LineCode=4_CU_3PH_12KV_3 Length=0.114463 units=km
New Line.ND45076893$BF91127 phases=2 Bus1=45076893.2.3 Bus2=211346983.2.3 LineCode=4_ACSR_2PH_12KV_2 Length=0.004024 units=km
New Line.PS0161$4605107EPH phases=4 Bus1=108577031.0.1.2.3 Bus2=18622507.0.1.2.3 LineCode=336_ACSR_3PH_336_ACSR_N_12KV_4 Length=0.298036 units=km
New Line.ND37769688$PS0510 phases=3 Bus1=37769688.1.2.3 Bus2=37769662.1.2.3 LineCode=4_ACSR_3PH_12KV_3 Length=0.061555 units=km
New Line.PS4118$ND37792789 phases=3 Bus1=37792789.1.2.3 Bus2=37791908.1.2.3 LineCode=1/0_ACSR_3PH_12KV_3 Length=0.066612 units=km
New Line.ND45075071$767525E phases=3 Bus1=45075071.1.2.3 Bus2=45012860.1.2.3 LineCode=6_CU_3PH_12KV_3 Length=0.055687 units=km
New Line.ND45076893$ND45075302 phases=3 Bus1=45076893.1.2.3 Bus2=45075302.1.2.3 LineCode=4_CU_3PH_12KV_3 Length=0.069878 units=km
New Line.ND37792789$PS0002 phases=3 Bus1=37792789.1.2.3 Bus2=89731306.1.2.3 LineCode=336_ACSR_3PH_12KV_3 Length=0.791248 units=km
New Line.ND138790881$4605854E phases=4 Bus1=169165504.0.1.2.3 Bus2=138790881.0.1.2.3 LineCode=6_CU_3PH_6_CU_N_12KV_4 Length=1.17147 units=km
New Line.ND138790881$GT140369 phases=2 Bus1=138790881.1.2 Bus2=169165479.1.2 LineCode=4_ACSR_2PH_12KV_2 Length=0.035584 units=km
New Line.ND34428617$ND138790881 phases=4 Bus1=138790881.0.1.2.3 Bus2=34428617.0.1.2.3 LineCode=336_ACSR_3PH_336_ACSR_N_12KV_4 Length=0.729072 units=km
New Line.ND34428617$4756534E phases=4 Bus1=34428617.0.1.2.3 Bus2=169165297.0.1.2.3 LineCode=336_ACSR_3PH_336_ACSR_N_12KV_4 Length=0.114618 units=km
New Line.1403710E$ND106834790 phases=3 Bus1=45034133.1.2.3 Bus2=106834790.1.2.3 LineCode=1/0_ACSR_3PH_12KV_3 Length=0.017346 units=km
New Line.955286E$ND18662576 phases=3 Bus1=18620195.1.2.3 Bus2=18662576.1.2.3 LineCode=336_ACSR_3PH_12KV_3 Length=0.029831 units=km
New Line.2086021E$ND34428617 phases=3 Bus1=34428617.1.2.3 Bus2=34427456.1.2.3 LineCode=6_CU_3PH_12KV_3 Length=1.4941 units=km
New Line.ND18662576$4121964E phases=3 Bus1=18662576.1.2.3 Bus2=18620299.1.2.3 LineCode=336_ACSR_3PH_12KV_3 Length=0.135892 units=km
New Line.ND18662576$BF90450 phases=3 Bus1=18662576.1.2.3 Bus2=18622735.1.2.3 LineCode=6_CU_3PH_12KV_3 Length=0.016931 units=km
New Line.4756534E$ND34458529 phases=4 Bus1=169165297.0.1.2.3 Bus2=34458529.0.1.2.3 LineCode=336_ACSR_3PH_336_ACSR_N_12KV_4 Length=0.189276 units=km
New Line.4121964E$ND136064854 phases=3 Bus1=18620299.1.2.3 Bus2=136064854.1.2.3 LineCode=336_ACSR_3PH_12KV_3 Length=0.139741 units=km
New Line.ND34458529$PS2255 phases=4 Bus1=34458529.0.1.2.3 Bus2=169165600.0.1.2.3 LineCode=336_ACSR_3PH_336_ACSR_N_12KV_4 Length=0.176364 units=km
New Line.ND34458529$4756537E phases=2 Bus1=34458529.2.3 Bus2=169165670.2.3 LineCode=6_CU_2PH_12KV_2 Length=0.028396 units=km
New Line.2086021E$ND90541546 phases=3 Bus1=34427455.1.2.3 Bus2=90541546.1.2.3 LineCode=6_CU_3PH_12KV_3 Length=0.797935 units=km
New Line.ND136064854$4748466E phases=2 Bus1=136064854.1.2 Bus2=136064848.1.2 LineCode=4_ACSR_2PH_12KV_2 Length=0.068959 units=km
New Line.ND90541546$4356562E phases=2 Bus1=90541546.2.3 Bus2=169165259.2.3 LineCode=4_ACSR_2PH_12KV_2 Length=0.413882 units=km
New Line.568058E$ND45075302 phases=2 Bus1=45075302.1.2 Bus2=45034311.1.2 LineCode=4_ACSR_2PH_12KV_2 Length=0.160385 units=km
New Line.767525E$ND45076404 phases=3 Bus1=45012860.1.2.3 Bus2=45076404.1.2.3 LineCode=6_CU_3PH_12KV_3 Length=0.002121 units=km
New Line.ND45075302$ND45100848 phases=3 Bus1=45075302.1.2.3 Bus2=45100848.1.2.3 LineCode=4_CU_3PH_12KV_3 Length=0.063129 units=km
New Line.PS0510$ND173320318 phases=3 Bus1=37769663.1.2.3 Bus2=173320318.1.2.3 LineCode=336_ACSR_3PH_12KV_3 Length=0.015435 units=km
New Line.ND45076404$767527E phases=3 Bus1=45076404.1.2.3 Bus2=44988040.1.2.3 LineCode=6_CU_3PH_12KV_3 Length=0.105467 units=km
New Line.ND45076404$709602E phases=3 Bus1=45076404.1.2.3 Bus2=44988217.1.2.3 LineCode=6_CU_3PH_12KV_3 Length=0.154003 units=km
New Line.4601477E$BF91127 phases=2 Bus1=211346984.2.3 Bus2=45009849.2.3 LineCode=4_ACSR_2PH_12KV_2 Length=0.127873 units=km
New Line.ND136064854$ND18662517 phases=3 Bus1=136064854.1.2.3 Bus2=18662517.1.2.3 LineCode=336_ACSR_3PH_12KV_3 Length=0.179117 units=km
New Line.BF90450$ND18662971 phases=3 Bus1=18622736.1.2.3 Bus2=18662971.1.2.3 LineCode=6_CU_3PH_12KV_3 Length=0.034414 units=km
New Line.1586865E$4756537E phases=2 Bus1=169165671.2.3 Bus2=169165082.2.3 LineCode=6_CU_2PH_12KV_2 Length=0.100438 units=km
New Line.ND18662971$2007606E phases=3 Bus1=18662971.1.2.3 Bus2=18620222.1.2.3 LineCode=6_CU_3PH_12KV_3 Length=0.018517 units=km
New Line.ND18662971$4796864E phases=2 Bus1=18662971.1.2 Bus2=18621243.1.2 LineCode=6_CU_2PH_12KV_2 Length=0.095773 units=km
New Line.1218198E$ND18662517 phases=3 Bus1=18662517.1.2.3 Bus2=18622713.1.2.3 LineCode=6_CU_3PH_12KV_3 Length=0.017876 units=km
New Line.ND18662517$ND18662288 phases=3 Bus1=18662517.1.2.3 Bus2=18662288.1.2.3 LineCode=336_ACSR_3PH_12KV_3 Length=0.386927 units=km
New Line.4077099E$ND18662288 phases=3 Bus1=18662288.1.2.3 Bus2=18620326.1.2.3 LineCode=6_CU_3PH_12KV_3 Length=0.11509 units=km
New Line.2007606E$4796873E phases=3 Bus1=18620222.1.2.3 Bus2=18622364.1.2.3 LineCode=6_CU_3PH_12KV_3 Length=0.881373 units=km
New Line.ND18662288$BF90449 phases=3 Bus1=18662288.1.2.3 Bus2=18622754.1.2.3 LineCode=1/0_ACSR_3PH_12KV_3 Length=0.032835 units=km
New Line.ND18662288$ND18662302 phases=3 Bus1=18662288.1.2.3 Bus2=18662302.1.2.3 LineCode=336_ACSR_3PH_12KV_3 Length=0.788117 units=km
New Line.4077099E$4788459E phases=3 Bus1=18620326.1.2.3 Bus2=170197090.1.2.3 LineCode=6_CU_3PH_12KV_3 Length=0.37306 units=km
New Line.1218198E$916173E phases=3 Bus1=18622712.1.2.3 Bus2=18620272.1.2.3 LineCode=6_CU_3PH_12KV_3 Length=0.164762 units=km
New Line.955783E$ND18662302 phases=3 Bus1=18662302.1.2.3 Bus2=18622560.1.2.3 LineCode=1/0_CU_3PH_12KV_3 Length=0.147275 units=km
New Line.ND18662302$ND18662303 phases=3 Bus1=18662302.1.2.3 Bus2=18662303.1.2.3 LineCode=336_ACSR_3PH_12KV_3 Length=0.182478 units=km
New Line.ND45074924$2345637E phases=3 Bus1=45074924.1.2.3 Bus2=44984143.1.2.3 LineCode=336_ACSR_3PH_12KV_3 Length=0.065861 units=km
New Line.ND18662303$BF90448 phases=2 Bus1=18662303.2.3 Bus2=18622773.2.3 LineCode=4_ACSR_3PH_12KV_2 Length=0.020335 units=km
New Line.BF90449$ND18662319 phases=3 Bus1=18622755.1.2.3 Bus2=18662319.1.2.3 LineCode=1/0_ACSR_3PH_12KV_3 Length=0.032835 units=km
New Line.ND216642359$2345637E phases=3 Bus1=44984143.1.2.3 Bus2=216642295.1.2.3 LineCode=336_ACSR_3PH_12KV_3 Length=0.081872 units=km
New Line.ND18662303$955774E phases=3 Bus1=18662303.1.2.3 Bus2=237177307.1.2.3 LineCode=336_ACSR_3PH_12KV_3 Length=0.451739 units=km
New Line.ND45100848$ND45075463 phases=3 Bus1=45100848.1.2.3 Bus2=45075463.1.2.3 LineCode=4_CU_3PH_12KV_3 Length=0.062438 units=km
New Line.PS4118$1821115E phases=3 Bus1=37791909.1.2.3 Bus2=97160492.1.2.3 LineCode=4_ACSR_3PH_12KV_3 Length=0.06934 units=km
New Line.ND222615632$568058E phases=2 Bus1=45034310.1.2 Bus2=222615632.1.2 LineCode=4_ACSR_2PH_12KV_2 Length=0.008248 units=km
New Line.ND173320318$1121290E phases=3 Bus1=173320318.1.2.3 Bus2=39498831.1.2.3 LineCode=336_ACSR_3PH_12KV_3 Length=0.831977 units=km
New Line.ND45075463$864944E phases=3 Bus1=45075463.1.2.3 Bus2=45009793.1.2.3 LineCode=4_CU_3PH_12KV_3 Length=0.24417 units=km
New Line.4601477E$4143254E phases=2 Bus1=45009849.2.3 Bus2=45009953.2.3 LineCode=4_ACSR_2PH_12KV_2 Length=0.165108 units=km
New Line.ND45077452$767527E phases=3 Bus1=44988040.1.2.3 Bus2=45077452.1.2.3 LineCode=6_CU_3PH_12KV_3 Length=0.067847 units=km
New Line.4651233E$ND222615632 phases=2 Bus1=222615632.1.2 Bus2=101561936.1.2 LineCode=4_ACSR_2PH_12KV_2 Length=0.04604 units=km
New Line.1121290E$PS0156 phases=3 Bus1=39498831.1.2.3 Bus2=142419101.1.2.3 LineCode=336_ACSR_3PH_12KV_3 Length=0.052254 units=km
New Line.864944E$RCS1399 phases=3 Bus1=45009793.1.2.3 Bus2=200630615.1.2.3 LineCode=4_CU_3PH_12KV_3 Length=0.05326 units=km
New Line.BF92339$ND222615632 phases=2 Bus1=222615632.1.2 Bus2=214427431.1.2 LineCode=4_ACSR_2PH_12KV_2 Length=0.080594 units=km
New Line.955783E$531371E phases=3 Bus1=18622561.1.2.3 Bus2=18620426.1.2.3 LineCode=1/0_CU_3PH_12KV_3 Length=0.028839 units=km
New Line.955774E$PS0061 phases=3 Bus1=237177307.1.2.3 Bus2=18662030.1.2.3 LineCode=336_ACSR_3PH_12KV_3 Length=0.217612 units=km
New Line.ND18662319$ND18662177 phases=3 Bus1=18662319.1.2.3 Bus2=18662177.1.2.3 LineCode=1/0_ACSR_3PH_12KV_3 Length=0.688394 units=km
New Line.PS0407$ND45076852 phases=4 Bus1=45034627.0.1.2.3 Bus2=45076852.0.1.2.3 LineCode=336_ACSR_3PH_336_ACSR_N_12KV_4 Length=1.47039 units=km
New Line.ND45077452$1162886E phases=3 Bus1=45077452.1.2.3 Bus2=44987986.1.2.3 LineCode=6_CU_3PH_12KV_3 Length=0.03282 units=km
New Line.1162886E$542068E phases=3 Bus1=44987986.1.2.3 Bus2=44984274.1.2.3 LineCode=6_CU_3PH_12KV_3 Length=0.030523 units=km
New Line.4651233E$4528497E phases=2 Bus1=101561936.1.2 Bus2=45013081.1.2 LineCode=4_ACSR_2PH_12KV_2 Length=0.087111 units=km
New Line.ND45076852$ND144930092 phases=3 Bus1=45076852.1.2.3 Bus2=144930092.1.2.3 LineCode=6_CU_3PH_12KV_3 Length=0.049654 units=km
New Line.ND18662177$2273610E phases=2 Bus1=18662177.1.2 Bus2=18620351.1.2 LineCode=1/0_ACSR_2PH_12KV_2 Length=0.082624 units=km
New Line.ND18662177$4205943E phases=2 Bus1=18662177.2.3 Bus2=18620376.2.3 LineCode=4_ACSR_2PH_12KV_2 Length=0.134889 units=km
New Line.531371E$4663200E phases=3 Bus1=18620426.1.2.3 Bus2=18620401.1.2.3 LineCode=1/0_ACSR_3PH_12KV_3 Length=0.090259 units=km
New Line.BF90448$ND18662425 phases=2 Bus1=18622774.2.3 Bus2=18662425.2.3 LineCode=4_ACSR_3PH_12KV_2 Length=0.3005 units=km
New Line.4756757E$ND45076852 phases=4 Bus1=45076852.0.1.2.3 Bus2=45012515.0.1.2.3 LineCode=336_ACSR_3PH_336_ACSR_N_12KV_4 Length=0.06212 units=km
New Line.BF90520$ND144930092 phases=3 Bus1=144930092.1.2.3 Bus2=148589835.1.2.3 LineCode=6_CU_3PH_12KV_3 Length=0.061959 units=km
New Line.1295678E$BF92339 phases=2 Bus1=214427432.1.2 Bus2=45009928.1.2 LineCode=4_ACSR_2PH_12KV_2 Length=0.109297 units=km
New Line.ND18662425$2058852E phases=2 Bus1=18662425.2.3 Bus2=18620476.2.3 LineCode=4_ACSR_3PH_12KV_2 Length=0.022926 units=km
New Line.ND18662425$GT76067 phases=2 Bus1=18662425.2.3 Bus2=18622414.2.3 LineCode=4_ACSR_3PH_12KV_2 Length=0.055897 units=km
New Line.PS0061$ND18662650 phases=3 Bus1=18662031.1.2.3 Bus2=18662650.1.2.3 LineCode=336_ACSR_3PH_12KV_3 Length=0.096992 units=km
New Line.ND45102216$4756757E phases=4 Bus1=45012515.0.1.2.3 Bus2=45102216.0.1.2.3 LineCode=336_ACSR_3PH_336_ACSR_N_12KV_4 Length=0.06093 units=km
New Line.2058852E$2058853E phases=2 Bus1=18620476.2.3 Bus2=18620451.2.3 LineCode=4_ACSR_3PH_12KV_2 Length=0.068547 units=km
New Line.ND18662650$955769E phases=3 Bus1=18662650.1.2.3 Bus2=18620742.1.2.3 LineCode=336_ACSR_3PH_12KV_3 Length=0.049163 units=km
New Line.PS0063$ND18662650 phases=3 Bus1=18662650.1.2.3 Bus2=18622633.1.2.3 LineCode=336_ACSR_3PH_12KV_3 Length=0.059064 units=km
New Line.ND18662650$BF90447 phases=3 Bus1=18662650.1.2.3 Bus2=18622792.1.2.3 LineCode=336_ACSR_3PH_12KV_3 Length=0.032699 units=km