! OpenDSS script generated from multiconductor network
Clear

New Circuit.mc_network basekv=12.0 pu=1.000000 angle=0.00 frequency=60.0 phases=3 Mvasc3=143993 Mvasc1=47997.6
~ bus1=-8888882169284.1.2.3

! Line codes
New LineCode.336_ACSR_3PH_336_ACSR_N_12KV_4 nphases=4 units=km Rmatrix=[ 0.014402 | 0 0.014402 | 0 0 0.014402 | 0 0 0 0.014402 ] Xmatrix=[ 0.02872 | 0 0.02872 | 0 0 0.02872 | 0 0 0 0.02872 ] Cmatrix=[ 0 | 0 0 | 0 0 0 | 0 0 0 0 ]
New LineCode.350_CLP_3PH_12KV_3 nphases=3 units=km Rmatrix=[ 0.04475 | 0 0.04475 | 0 0 0.04475 ] Xmatrix=[ 0.034001 | 0 0.034001 | 0 0 0.034001 ] Cmatrix=[ 0 | 0 0 | 0 0 0 ]
New LineCode.1/0_JCN_1PH_12KV_1 nphases=1 units=km Rmatrix=[ 0.001684 ] Xmatrix=[ 0.000515 ] Cmatrix=[ 0 ]
New LineCode.750_CLP_1PH_12KV_1 nphases=1 units=km Rmatrix=[ 0.000227 ] Xmatrix=[ 0.000279 ] Cmatrix=[ 0 ]
New LineCode.2_CLP_1PH_12KV_1 nphases=1 units=km Rmatrix=[ 0.000683 ] Xmatrix=[ 0.000144 ] Cmatrix=[ 0 ]
New LineCode.2_CLP_2PH_12KV_2 nphases=2 units=km Rmatrix=[ 0.022874 | 0 0.022874 ] Xmatrix=[ 0.004821 | 0 0.004821 ] Cmatrix=[ 0 | 0 0 ]
New LineCode.1/0_CLP_3PH_12KV_3 nphases=3 units=km Rmatrix=[ 0.003067 | 0 0.003067 | 0 0 0.003067 ] Xmatrix=[ 0.000938 | 0 0.000938 | 0 0 0.000938 ] Cmatrix=[ 0 | 0 0 | 0 0 0 ]
New LineCode.2_CLP_3PH_12KV_3 nphases=3 units=km Rmatrix=[ 0.006291 | 0 0.006291 | 0 0 0.006291 ] Xmatrix=[ 0.001326 | 0 0.001326 | 0 0 0.001326 ] Cmatrix=[ 0 | 0 0 | 0 0 0 ]
New LineCode.1/0_JCN_3PH_12KV_3 nphases=3 units=km Rmatrix=[ 0.006964 | 0 0.006964 | 0 0 0.006964 ] Xmatrix=[ 0.002129 | 0 0.002129 | 0 0 0.002129 ] Cmatrix=[ 0 | 0 0 | 0 0 0 ]
New LineCode.653_ACSR_3PH_653_ACSR_N_12KV_4 nphases=4 units=km Rmatrix=[ 0.000199 | 0 0.000199 | 0 0 0.000199 | 0 0 0 0.000199 ] Xmatrix=[ 0.000678 | 0 0.000678 | 0 0 0.000678 | 0 0 0 0.000678 ] Cmatrix=[ 0 | 0 0 | 0 0 0 | 0 0 0 0 ]
New LineCode.__1PH_12KV_1 nphases=1 units=km Rmatrix=[ 1e-05 ] Xmatrix=[ 1e-05 ] Cmatrix=[ 0 ]
New LineCode.350_AL_1PH_12KV_1 nphases=1 units=km Rmatrix=[ 0.017617 ] Xmatrix=[ 0.013385 ] Cmatrix=[ 0 ]
New LineCode.653_ACSR_2PH_653_ACSR_N_12KV_3_N nphases=3 units=km Rmatrix=[ 0.001504 | 0 0.001504 | 0 0 0.001504 ] Xmatrix=[ 0.005115 | 0 0.005115 | 0 0 0.005115 ] Cmatrix=[ 0 | 0 0 | 0 0 0 ]
New LineCode.653_ACSR_3PH_653_ACSR_N_12KV_3 nphases=3 units=km Rmatrix=[ 0.000199 | 0 0.000199 | 0 0 0.000199 ] Xmatrix=[ 0.000678 | 0 0.000678 | 0 0 0.000678 ] Cmatrix=[ 0 | 0 0 | 0 0 0 ]
New LineCode.6_CU_3PH_12KV_3 nphases=3 units=km Rmatrix=[ 0.126693 | 0 0.126693 | 0 0 0.126693 ] Xmatrix=[ 0.044907 | 0 0.044907 | 0 0 0.044907 ] Cmatrix=[ 0 | 0 0 | 0 0 0 ]
New LineCode.4_ACSR_2PH_12KV_2 nphases=2 units=km Rmatrix=[ 0.005124 | 0 0.005124 ] Xmatrix=[ 0.00188 | 0 0.00188 ] Cmatrix=[ 0 | 0 0 ]
New LineCode.336_ACSR_3PH_12KV_3 nphases=3 units=km Rmatrix=[ 0.005273 | 0 0.005273 | 0 0 0.005273 ] Xmatrix=[ 0.011809 | 0 0.011809 | 0 0 0.011809 ] Cmatrix=[ 0 | 0 0 | 0 0 0 ]
New LineCode.2_ACSR_2PH_12KV_2 nphases=2 units=km Rmatrix=[ 0.003461 | 0 0.003461 ] Xmatrix=[ 0.001861 | 0 0.001861 ] Cmatrix=[ 0 | 0 0 ]
New LineCode.4_ACSR_3PH_12KV_3 nphases=3 units=km Rmatrix=[ 0.140355 | 0 0.140355 | 0 0 0.140355 ] Xmatrix=[ 0.051502 | 0 0.051502 | 0 0 0.051502 ] Cmatrix=[ 0 | 0 0 | 0 0 0 ]
New LineCode.1/0_ACSR_3PH_12KV_3 nphases=3 units=km Rmatrix=[ 0.003479 | 0 0.003479 | 0 0 0.003479 ] Xmatrix=[ 0.00277 | 0 0.00277 | 0 0 0.00277 ] Cmatrix=[ 0 | 0 0 | 0 0 0 ]
New LineCode.1/0_ACSR_3PH_1/0_ACSR_N_12KV_4 nphases=4 units=km Rmatrix=[ 0.027235 | 0 0.027235 | 0 0 0.027235 | 0 0 0 0.027235 ] Xmatrix=[ 0.019682 | 0 0.019682 | 0 0 0.019682 | 0 0 0 0.019682 ] Cmatrix=[ 0 | 0 0 | 0 0 0 | 0 0 0 0 ]
New LineCode.6_CU_2PH_12KV_2 nphases=2 units=km Rmatrix=[ 0.079308 | 0 0.079308 ] Xmatrix=[ 0.028111 | 0 0.028111 ] Cmatrix=[ 0 | 0 0 ]
New LineCode.336_ACSR_2PH_336_ACSR_N_12KV_3_N nphases=3 units=km Rmatrix=[ 0.00057 | 0 0.00057 | 0 0 0.00057 ] Xmatrix=[ 0.001136 | 0 0.001136 | 0 0 0.001136 ] Cmatrix=[ 0 | 0 0 | 0 0 0 ]
New LineCode.336_ACSR_3PH_12KV_4 nphases=4 units=km Rmatrix=[ 0.005273 | 0 0.005273 | 0 0 0.005273 | 0 0 0 0.005273 ] Xmatrix=[ 0.011809 | 0 0.011809 | 0 0 0.011809 | 0 0 0 0.011809 ] Cmatrix=[ 0 | 0 0 | 0 0 0 | 0 0 0 0 ]
New LineCode.750_JCN_3PH_12KV_3 nphases=3 units=km Rmatrix=[ 0.010055 | 0 0.010055 | 0 0 0.010055 ] Xmatrix=[ 0.012349 | 0 0.012349 | 0 0 0.012349 ] Cmatrix=[ 0 | 0 0 | 0 0 0 ]
New LineCode.750_CLP_3PH_12KV_3 nphases=3 units=km Rmatrix=[ 0.003027 | 0 0.003027 | 0 0 0.003027 ] Xmatrix=[ 0.003717 | 0 0.003717 | 0 0 0.003717 ] Cmatrix=[ 0 | 0 0 | 0 0 0 ]
New LineCode.1/0_JCN_2PH_12KV_2 nphases=2 units=km Rmatrix=[ 0.005084 | 0 0.005084 ] Xmatrix=[ 0.001554 | 0 0.001554 ] Cmatrix=[ 0 | 0 0 ]
New LineCode.350_AL_3PH_12KV_3 nphases=3 units=km Rmatrix=[ 0.011537 | 0 0.011537 | 0 0 0.011537 ] Xmatrix=[ 0.008766 | 0 0.008766 | 0 0 0.008766 ] Cmatrix=[ 0 | 0 0 | 0 0 0 ]
New LineCode.477_ACSR_3PH_12KV_3 nphases=3 units=km Rmatrix=[ 0.001528 | 0 0.001528 | 0 0 0.001528 ] Xmatrix=[ 0.004704 | 0 0.004704 | 0 0 0.004704 ] Cmatrix=[ 0 | 0 0 | 0 0 0 ]
New LineCode.2_ACSR_3PH_12KV_3 nphases=3 units=km Rmatrix=[ 0.024631 | 0 0.024631 | 0 0 0.024631 ] Xmatrix=[ 0.013242 | 0 0.013242 | 0 0 0.013242 ] Cmatrix=[ 0 | 0 0 | 0 0 0 ]
New LineCode.2_CU_2PH_12KV_2 nphases=2 units=km Rmatrix=[ 0.055119 | 0 0.055119 ] Xmatrix=[ 0.044825 | 0 0.044825 ] Cmatrix=[ 0 | 0 0 ]
New LineCode.6_CU_3PH_6_CU_N_12KV_4 nphases=4 units=km Rmatrix=[ 0.099493 | 0 0.099493 | 0 0 0.099493 | 0 0 0 0.099493 ] Xmatrix=[ 0.032132 | 0 0.032132 | 0 0 0.032132 | 0 0 0 0.032132 ] Cmatrix=[ 0 | 0 0 | 0 0 0 | 0 0 0 0 ]
New LineCode.1000_JCN_3PH_12KV_3 nphases=3 units=km Rmatrix=[ 0.051348 | 0 0.051348 | 0 0 0.051348 ] Xmatrix=[ 0.077725 | 0 0.077725 | 0 0 0.077725 ] Cmatrix=[ 0 | 0 0 | 0 0 0 ]
New LineCode.1/0_AL_3PH_12KV_3 nphases=3 units=km Rmatrix=[ 0.011174 | 0 0.011174 | 0 0 0.011174 ] Xmatrix=[ 0.003415 | 0 0.003415 | 0 0 0.003415 ] Cmatrix=[ 0 | 0 0 | 0 0 0 ]
New LineCode.1/0_CLP_ABC_12_3 nphases=3 units=km Rmatrix=[ 0.003223 | 0 0.003223 | 0 0 0.003223 ] Xmatrix=[ 0.000985 | 0 0.000985 | 0 0 0.000985 ] Cmatrix=[ 0 | 0 0 | 0 0 0 ]

! Lines
New Line.ND36548465$1992002E phases=4 Bus1=36548465.0.1.2.3 Bus2=36531125.0.1.2.3 LineCode=336_ACSR_3PH_336_ACSR_N_12KV_4 Length=0.055408 units=km
New Line.1992002E$PMH1605-2 phases=3 Bus1=36531126.1.2.3 Bus2=36531166.1.2.3 LineCode=350_CLP_3PH_12KV_3 Length=0.201539 units=km
New Line.ND240498948$240499490 phases=1 Bus1=240498948.3 Bus2=240499493.3 LineCode=1/0_JCN_1PH_12KV_1 Length=0.004056 units=km
New Line.36546288$36533130 phases=1 Bus1=36546290.1 Bus2=36533132.1 LineCode=750_CLP_1PH_12KV_1 Length=0.140417 units=km
New Line.P5553089-2$105881436 phases=1 Bus1=105880476.1 Bus2=105881439.1 LineCode=2_CLP_1PH_12KV_1 Length=0.000618 units=km
New Line.P5553094-1$105969985 phases=1 Bus1=105880372.1 Bus2=105969988.1 LineCode=2_CLP_1PH_12KV_1 Length=0.000769 units=km
New Line.FD0332$36533212 phases=1 Bus1=36533120.1 Bus2=36533214.1 LineCode=750_CLP_1PH_12KV_1 Length=0.034531 units=km
New Line.188474753$PME1605-3 phases=2 Bus1=36531148.1.2 Bus2=188474756.1.2 LineCode=2_CLP_2PH_12KV_2 Length=0.001432 units=km
New Line.PME1605-1$196617979 phases=3 Bus1=36531175.1.2.3 Bus2=196617981.1.2.3 LineCode=1/0_CLP_3PH_12KV_3 Length=0.594853 units=km
New Line.ND36548619$188474753 phases=2 Bus1=188474755.1.2 Bus2=36548619.1.2 LineCode=2_CLP_2PH_12KV_2 Length=0.020525 units=km
New Line.196617979$P5584751 phases=3 Bus1=196617982.1.2.3 Bus2=108674832.1.2.3 LineCode=1/0_CLP_3PH_12KV_3 Length=0.004367 units=km
New Line.P5583100-1$ND36548619 phases=1 Bus1=36548619.2 Bus2=36531372.2 LineCode=2_CLP_1PH_12KV_1 Length=0.119643 units=km
New Line.P5461802-2$ND36548619 phases=1 Bus1=36548619.1 Bus2=36532513.1 LineCode=2_CLP_1PH_12KV_1 Length=0.099503 units=km
New Line.P5464768-1$36533222 phases=1 Bus1=36533238.1 Bus2=36533225.1 LineCode=750_CLP_1PH_12KV_1 Length=0.002035 units=km
New Line.196617967$P5584751 phases=3 Bus1=108674832.1.2.3 Bus2=196617970.1.2.3 LineCode=2_CLP_3PH_12KV_3 Length=0.006334 units=km
New Line.886006E$182281548 phases=3 Bus1=182281498.1.2.3 Bus2=182281550.1.2.3 LineCode=1/0_JCN_3PH_12KV_3 Length=0.146914 units=km
New Line.229592073$210653368 phases=1 Bus1=229592075.1 Bus2=210653370.1 LineCode=2_CLP_1PH_12KV_1 Length=0.021007 units=km
New Line.223247101$240499556 phases=1 Bus1=223247103.2 Bus2=240499558.2 LineCode=1/0_JCN_1PH_12KV_1 Length=0.054507 units=km
New Line.601279E$PME5690-4 phases=3 Bus1=223245950.1.2.3 Bus2=223246016.1.2.3 LineCode=1/0_JCN_3PH_12KV_3 Length=0.047027 units=km
New Line.ND132852082$ND132852120 phases=4 Bus1=132852082.0.1.2.3 Bus2=132852120.0.1.2.3 LineCode=653_ACSR_3PH_653_ACSR_N_12KV_4 Length=0.012282 units=km
New Line.ND105880347$105969636 phases=1 Bus1=105969638.3 Bus2=105880347.3 LineCode=2_CLP_1PH_12KV_1 Length=0.181339 units=km
New Line.196618025$196291925 phases=3 Bus1=196291927.1.2.3 Bus2=196618027.1.2.3 LineCode=2_CLP_3PH_12KV_3 Length=0.102228 units=km
New Line.223247178$P5752416-1 phases=1 Bus1=223247181.1 Bus2=223246387.1 LineCode=1/0_JCN_1PH_12KV_1 Length=0.001632 units=km
New Line.240499465$240499797 phases=1 Bus1=240499467.3 Bus2=240499799.3 LineCode=1/0_JCN_1PH_12KV_1 Length=0.063415 units=km
New Line.240499490$240499847 phases=1 Bus1=240499492.3 Bus2=240499849.3 LineCode=1/0_JCN_1PH_12KV_1 Length=0.059226 units=km
New Line.36533130$P5464772-2 phases=1 Bus1=36533133.1 Bus2=36533155.1 LineCode=750_CLP_1PH_12KV_1 Length=0.005301 units=km
New Line.105881436$105969465 phases=1 Bus1=105881438.1 Bus2=105969467.1 LineCode=2_CLP_1PH_12KV_1 Length=0.140703 units=km
New Line.ND105880347$105969680 phases=1 Bus1=105880347.3 Bus2=105969682.3 LineCode=2_CLP_1PH_12KV_1 Length=0.149313 units=km
New Line.36533222$36533304 phases=1 Bus1=36533224.1 Bus2=36533306.1 LineCode=750_CLP_1PH_12KV_1 Length=0.21124 units=km
New Line.1799466E$ND132852120 phases=4 Bus1=132852120.0.1.2.3 Bus2=105498911.0.1.2.3 LineCode=336_ACSR_3PH_336_ACSR_N_12KV_4 Length=0.002838 units=km
New Line.196617967$196618055 phases=3 Bus1=196617969.1.2.3 Bus2=196618057.1.2.3 LineCode=2_CLP_3PH_12KV_3 Length=0.03867 units=km
New Line.P5461802-1$P5461803-2 phases=1 Bus1=36532504.1 Bus2=36531597.1 LineCode=2_CLP_1PH_12KV_1 Length=0.134746 units=km
New Line.ND36547841$P5583100-2 phases=1 Bus1=36531381.2 Bus2=36547841.2 LineCode=2_CLP_1PH_12KV_1 Length=0.102987 units=km
New Line.ND36547841$240292273 phases=1 Bus1=36547841.2 Bus2=240292275.2 LineCode=2_CLP_1PH_12KV_1 Length=0.11058 units=km
New Line.PME5690-1$X5749197T1 phases=1 Bus1=223246034.1 Bus2=240498899.1 LineCode=__1PH_12KV_1 Length=0.377034 units=km
New Line.P5458736-1$ND36547841 phases=1 Bus1=36547841.2 Bus2=36531300.2 LineCode=2_CLP_1PH_12KV_1 Length=0.115994 units=km
New Line.P5464769-1$36533304 phases=1 Bus1=36533307.1 Bus2=36533330.1 LineCode=750_CLP_1PH_12KV_1 Length=0.002516 units=km
New Line.36533304$36547776 phases=1 Bus1=36533307.1 Bus2=36547779.1 LineCode=750_CLP_1PH_12KV_1 Length=0.006471 units=km
New Line.ND105880347$105969730 phases=1 Bus1=105880347.3 Bus2=105969732.3 LineCode=2_CLP_1PH_12KV_1 Length=0.123316 units=km
New Line.105969985$105969905 phases=1 Bus1=105969987.1 Bus2=105969907.1 LineCode=2_CLP_1PH_12KV_1 Length=0.149343 units=km
New Line.182281548$182281575 phases=3 Bus1=182281551.1.2.3 Bus2=182281578.1.2.3 LineCode=1/0_JCN_3PH_12KV_3 Length=0.009915 units=km
New Line.P5749193-1$240499556 phases=1 Bus1=240499559.2 Bus2=240499103.2 LineCode=1/0_JCN_1PH_12KV_1 Length=0.002155 units=km
New Line.210653368$P5511747-2 phases=1 Bus1=210653371.1 Bus2=74071627.1 LineCode=2_CLP_1PH_12KV_1 Length=0.001077 units=km
New Line.1799466E$PME2985-4 phases=3 Bus1=105498929.1.2.3 Bus2=105498980.1.2.3 LineCode=2_CLP_3PH_12KV_3 Length=0.007223 units=km
New Line.196618055$P5584752-1 phases=3 Bus1=196618058.1.2.3 Bus2=108674875.1.2.3 LineCode=2_CLP_3PH_12KV_3 Length=0.002603 units=km
New Line.PME5690-3$240499338 phases=3 Bus1=223246007.1.2.3 Bus2=240499341.1.2.3 LineCode=1/0_JCN_3PH_12KV_3 Length=0.002438 units=km
New Line.FD10133$B5178364-1 phases=1 Bus1=36530890.3 Bus2=36515812.3 LineCode=350_AL_1PH_12KV_1 Length=0.099967 units=km
New Line.PS2281$1896549E phases=4 Bus1=36514965.0.1.2.3 Bus2=36546937.0.1.2.3 LineCode=653_ACSR_3PH_653_ACSR_N_12KV_4 Length=0.024665 units=km
New Line.PS2281$ND36549382 phases=4 Bus1=36546938.0.1.2.3 Bus2=36549382.0.1.2.3 LineCode=653_ACSR_3PH_653_ACSR_N_12KV_4 Length=0.152953 units=km
New Line.ND36549382$ND36548314 phases=4 Bus1=36549382.0.1.2.3 Bus2=36548314.0.1.2.3 LineCode=653_ACSR_3PH_653_ACSR_N_12KV_4 Length=0.048252 units=km
New Line.ND36548314$ND36548315 phases=4 Bus1=36548314.0.1.2.3 Bus2=36548315.0.1.2.3 LineCode=653_ACSR_3PH_653_ACSR_N_12KV_4 Length=0.231673 units=km
New Line.ND36548315$ND36548464 phases=4 Bus1=36548315.0.1.2.3 Bus2=36548464.0.1.2.3 LineCode=653_ACSR_3PH_653_ACSR_N_12KV_4 Length=0.068414 units=km
New Line.ND36548464$ND36548465 phases=4 Bus1=36548464.0.1.2.3 Bus2=36548465.0.1.2.3 LineCode=653_ACSR_3PH_653_ACSR_N_12KV_4 Length=0.421003 units=km
New Line.ND36548465$ND36548667 phases=4 Bus1=36548465.0.1.2.3 Bus2=36548667.0.1.2.3 LineCode=653_ACSR_3PH_653_ACSR_N_12KV_4 Length=0.055408 units=km
New Line.ND36548667$ND36548153 phases=4 Bus1=36548667.0.1.2.3 Bus2=36548153.0.1.2.3 LineCode=653_ACSR_3PH_653_ACSR_N_12KV_4 Length=0.064782 units=km
New Line.ND36548153$FD0332 phases=3 Bus1=36548153.0.1.3 Bus2=36533119.0.1.3 LineCode=653_ACSR_2PH_653_ACSR_N_12KV_3_N Length=0.014671 units=km
New Line.ND36548153$ND36548253 phases=4 Bus1=36548153.0.1.2.3 Bus2=36548253.0.1.2.3 LineCode=653_ACSR_3PH_653_ACSR_N_12KV_4 Length=0.261757 units=km
New Line.ND138157738$ND36548253 phases=4 Bus1=36548253.0.1.2.3 Bus2=138157738.0.1.2.3 LineCode=336_ACSR_3PH_336_ACSR_N_12KV_4 Length=0.089383 units=km
New Line.ND36548253$4140952E phases=3 Bus1=36548253.1.2.3 Bus2=36530879.1.2.3 LineCode=653_ACSR_3PH_653_ACSR_N_12KV_3 Length=0.058001 units=km
New Line.ND36549902$591054E phases=3 Bus1=36549902.1.2.3 Bus2=36515456.1.2.3 LineCode=6_CU_3PH_12KV_3 Length=0.085309 units=km
New Line.BF13723$1312947E phases=2 Bus1=216267631.2.3 Bus2=36515531.2.3 LineCode=4_ACSR_2PH_12KV_2 Length=0.051382 units=km
New Line.RCS2217$4289453E phases=3 Bus1=36547623.1.2.3 Bus2=36532249.1.2.3 LineCode=336_ACSR_3PH_12KV_3 Length=0.094983 units=km
New Line.PS1215$ND138157738 phases=4 Bus1=138157738.0.1.2.3 Bus2=36546969.0.1.2.3 LineCode=336_ACSR_3PH_336_ACSR_N_12KV_4 Length=0.00527 units=km
New Line.4140952E$ND36547934 phases=3 Bus1=36530879.1.2.3 Bus2=36547934.1.2.3 LineCode=653_ACSR_3PH_653_ACSR_N_12KV_3 Length=0.063344 units=km
New Line.594166E$ND36547934 phases=2 Bus1=36547934.1.3 Bus2=36547176.1.3 LineCode=4_ACSR_2PH_12KV_2 Length=0.003458 units=km
New Line.ND36547934$ND36549307 phases=4 Bus1=36547934.0.1.2.3 Bus2=36549307.0.1.2.3 LineCode=653_ACSR_3PH_653_ACSR_N_12KV_4 Length=0.074607 units=km
New Line.ND36549307$ND223245973 phases=4 Bus1=36549307.0.1.2.3 Bus2=223245973.0.1.2.3 LineCode=653_ACSR_3PH_653_ACSR_N_12KV_4 Length=0.229972 units=km
New Line.PS1215$696779E phases=4 Bus1=36546968.0.1.2.3 Bus2=36515014.0.1.2.3 LineCode=336_ACSR_3PH_336_ACSR_N_12KV_4 Length=0.077415 units=km
New Line.1799467E$ND36549307 phases=2 Bus1=36549307.1.3 Bus2=36547188.1.3 LineCode=2_ACSR_2PH_12KV_2 Length=0.026997 units=km
New Line.PS5689$ND223245973 phases=4 Bus1=223245973.0.1.2.3 Bus2=222710241.0.1.2.3 LineCode=653_ACSR_3PH_653_ACSR_N_12KV_4 Length=0.275533 units=km
New Line.601279E$ND223245973 phases=4 Bus1=223245973.0.1.2.3 Bus2=223245949.0.1.2.3 LineCode=653_ACSR_3PH_653_ACSR_N_12KV_4 Length=0.001946 units=km
New Line.594166E$1351845E phases=2 Bus1=36547175.1.3 Bus2=36529311.1.3 LineCode=4_ACSR_2PH_12KV_2 Length=0.021623 units=km
New Line.696779E$ND36547998 phases=4 Bus1=36515014.0.1.2.3 Bus2=36547998.0.1.2.3 LineCode=336_ACSR_3PH_336_ACSR_N_12KV_4 Length=0.080862 units=km
New Line.1351845E$1351849E phases=2 Bus1=36529311.1.3 Bus2=36529336.1.3 LineCode=4_ACSR_2PH_12KV_2 Length=0.151684 units=km
New Line.1799467E$1305828E phases=2 Bus1=36547189.1.3 Bus2=36529361.1.3 LineCode=2_ACSR_2PH_12KV_2 Length=0.026997 units=km
New Line.722238E$ND36547998 phases=3 Bus1=36547998.1.2.3 Bus2=36547163.1.2.3 LineCode=4_ACSR_3PH_12KV_3 Length=0.003761 units=km
New Line.ND36547998$ND36548135 phases=4 Bus1=36547998.0.1.2.3 Bus2=36548135.0.1.2.3 LineCode=336_ACSR_3PH_336_ACSR_N_12KV_4 Length=0.044655 units=km
New Line.PS5689$ND132852082 phases=4 Bus1=222710240.0.1.2.3 Bus2=132852082.0.1.2.3 LineCode=653_ACSR_3PH_653_ACSR_N_12KV_4 Length=0.1466 units=km
New Line.4289453E$PS3243 phases=3 Bus1=36532249.1.2.3 Bus2=145794184.1.2.3 LineCode=336_ACSR_3PH_12KV_3 Length=0.065025 units=km
New Line.ND236906704$4699143E phases=3 Bus1=236906704.1.2.3 Bus2=210570673.1.2.3 LineCode=1/0_ACSR_3PH_12KV_3 Length=0.043462 units=km
New Line.ND236906704$PS5925 phases=3 Bus1=236906704.1.2.3 Bus2=236906714.1.2.3 LineCode=1/0_ACSR_3PH_12KV_3 Length=0.005416 units=km
New Line.PS2811$FD5228 phases=4 Bus1=95814149.0.1.2.3 Bus2=36515376.0.1.2.3 LineCode=1/0_ACSR_3PH_1/0_ACSR_N_12KV_4 Length=0.038698 units=km
New Line.591054E$ND36547918 phases=3 Bus1=36515456.1.2.3 Bus2=36547918.1.2.3 LineCode=6_CU_3PH_12KV_3 Length=0.090338 units=km
New Line.1351849E$2019892E phases=2 Bus1=36529336.1.3 Bus2=36529286.1.3 LineCode=4_ACSR_2PH_12KV_2 Length=0.229478 units=km
New Line.1305828E$1305829E phases=2 Bus1=36529361.1.3 Bus2=36529386.1.3 LineCode=2_ACSR_2PH_12KV_2 Length=0.093361 units=km
New Line.1057161E$ND36548135 phases=2 Bus1=36548135.1.3 Bus2=36547150.1.3 LineCode=4_ACSR_2PH_12KV_2 Length=0.003337 units=km
New Line.ND36548135$ND36547897 phases=4 Bus1=36548135.0.1.2.3 Bus2=36547897.0.1.2.3 LineCode=336_ACSR_3PH_336_ACSR_N_12KV_4 Length=0.12823 units=km
New Line.ND36547897$BF12617 phases=3 Bus1=36547897.1.2.3 Bus2=197657429.1.2.3 LineCode=4_ACSR_3PH_12KV_3 Length=0.031581 units=km
New Line.ND36547918$611288E phases=3 Bus1=36547918.1.2.3 Bus2=36515431.1.2.3 LineCode=6_CU_3PH_12KV_3 Length=0.016577 units=km
New Line.ND36547918$2164397E phases=2 Bus1=36547918.1.3 Bus2=36531117.1.3 LineCode=6_CU_2PH_12KV_2 Length=0.086129 units=km
New Line.722238E$4341029E phases=3 Bus1=36547162.1.2.3 Bus2=36532168.1.2.3 LineCode=4_ACSR_3PH_12KV_3 Length=0.078106 units=km
New Line.PS2287$ND132852082 phases=3 Bus1=132852082.1.2.3 Bus2=36547206.1.2.3 LineCode=653_ACSR_3PH_653_ACSR_N_12KV_3 Length=0.143967 units=km
New Line.ND36547897$ND36547857 phases=4 Bus1=36547897.0.1.2.3 Bus2=36547857.0.1.2.3 LineCode=336_ACSR_3PH_336_ACSR_N_12KV_4 Length=0.036015 units=km
New Line.ND36547857$FD10133 phases=3 Bus1=36547857.0.1.3 Bus2=36530889.0.1.3 LineCode=336_ACSR_2PH_336_ACSR_N_12KV_3_N Length=0.012456 units=km
New Line.1057161E$6540T phases=2 Bus1=36547149.1.3 Bus2=36532444.1.3 LineCode=4_ACSR_2PH_12KV_2 Length=0.104182 units=km
New Line.ND36547857$ND36547858 phases=4 Bus1=36547857.0.1.2.3 Bus2=36547858.0.1.2.3 LineCode=336_ACSR_3PH_336_ACSR_N_12KV_4 Length=0.053447 units=km
New Line.4341029E$ND36549177 phases=3 Bus1=36532168.1.2.3 Bus2=36549177.1.2.3 LineCode=4_ACSR_3PH_12KV_3 Length=0.035241 units=km
New Line.PS2287$4683475E phases=4 Bus1=36547207.0.1.2.3 Bus2=137637031.0.1.2.3 LineCode=653_ACSR_3PH_653_ACSR_N_12KV_4 Length=0.208366 units=km
New Line.6540T$6542T phases=2 Bus1=36532444.1.3 Bus2=36529211.1.3 LineCode=4_ACSR_2PH_12KV_2 Length=0.10571 units=km
New Line.ND36549177$4589355E phases=3 Bus1=36549177.1.2.3 Bus2=36529261.1.2.3 LineCode=4_ACSR_3PH_12KV_3 Length=0.035241 units=km
New Line.ND36547858$FD10132 phases=3 Bus1=36547858.0.1.3 Bus2=36530905.0.1.3 LineCode=336_ACSR_2PH_336_ACSR_N_12KV_3_N Length=0.041464 units=km
New Line.BF12617$870444E phases=3 Bus1=197657430.1.2.3 Bus2=36530963.1.2.3 LineCode=4_ACSR_3PH_12KV_3 Length=0.008754 units=km
New Line.ND36547858$ND36547697 phases=4 Bus1=36547858.0.1.2.3 Bus2=36547697.0.1.2.3 LineCode=336_ACSR_3PH_12KV_4 Length=0.041464 units=km
New Line.PS5925$PH142E phases=3 Bus1=236906715.1.2.3 Bus2=236906745.1.2.3 LineCode=1/0_ACSR_3PH_12KV_3 Length=0.003564 units=km
New Line.611288E$4359460E phases=3 Bus1=36515431.1.2.3 Bus2=36546471.1.2.3 LineCode=6_CU_3PH_12KV_3 Length=0.038198 units=km
New Line.PS3243$ND71701256 phases=3 Bus1=145794185.1.2.3 Bus2=71701256.1.2.3 LineCode=336_ACSR_3PH_12KV_3 Length=0.065025 units=km
New Line.6542T$6545T phases=2 Bus1=36529211.1.3 Bus2=222090480.1.3 LineCode=4_ACSR_2PH_12KV_2 Length=0.159853 units=km
New Line.870444E$4589351E phases=3 Bus1=36530963.1.2.3 Bus2=36530988.1.2.3 LineCode=4_ACSR_3PH_12KV_3 Length=0.091083 units=km
New Line.ND36547697$4405346E phases=4 Bus1=36547697.0.1.2.3 Bus2=36546523.0.1.2.3 LineCode=336_ACSR_3PH_12KV_4 Length=0.079874 units=km
New Line.4747430EPI$4683475E phases=3 Bus1=137637032.1.2.3 Bus2=137636917.1.2.3 LineCode=750_JCN_3PH_12KV_3 Length=0.089248 units=km
New Line.P5630981-2$FD10132 phases=1 Bus1=36530906.3 Bus2=36516109.3 LineCode=350_AL_1PH_12KV_1 Length=0.134354 units=km
New Line.240292273$P5462011-2 phases=1 Bus1=240292276.2 Bus2=36532658.2 LineCode=2_CLP_1PH_12KV_1 Length=0.003098 units=km
New Line.36547776$36546370 phases=1 Bus1=36547778.1 Bus2=36546372.1 LineCode=750_CLP_1PH_12KV_1 Length=0.107569 units=km
New Line.P5461803-1$ND36548508 phases=1 Bus1=36531588.1 Bus2=36548508.1 LineCode=2_CLP_1PH_12KV_1 Length=0.116956 units=km
New Line.4693903E$ND36547990 phases=3 Bus1=36547990.1.2.3 Bus2=109931441.1.2.3 LineCode=336_ACSR_3PH_12KV_3 Length=0.063328 units=km
New Line.240499338$ND240498447 phases=3 Bus1=240499340.1.2.3 Bus2=240498447.1.2.3 LineCode=1/0_JCN_3PH_12KV_3 Length=0.002041 units=km
New Line.P5461804-1$ND36548508 phases=1 Bus1=36548508.1 Bus2=36531660.1 LineCode=2_CLP_1PH_12KV_1 Length=0.096936 units=km
New Line.ND36548508$P5461805-2 phases=1 Bus1=36548508.1 Bus2=36531741.1 LineCode=2_CLP_1PH_12KV_1 Length=0.114791 units=km
New Line.P5464769-2$36533314 phases=1 Bus1=36533339.1 Bus2=36533317.1 LineCode=750_CLP_1PH_12KV_1 Length=0.005534 units=km
New Line.P5458736-2$ND36547891 phases=1 Bus1=36531309.2 Bus2=36547891.2 LineCode=2_CLP_1PH_12KV_1 Length=0.009562 units=km
New Line.196618025$P5586552-1 phases=3 Bus1=196618028.1.2.3 Bus2=107964295.1.2.3 LineCode=2_CLP_3PH_12KV_3 Length=0.001779 units=km
New Line.240499847$P5752425-2 phases=1 Bus1=240499850.3 Bus2=240498699.3 LineCode=1/0_JCN_1PH_12KV_1 Length=0.002748 units=km
New Line.240499797$ND240499056 phases=1 Bus1=240499800.3 Bus2=240499056.3 LineCode=1/0_JCN_1PH_12KV_1 Length=0.00367 units=km
New Line.ND71701256$FD5232 phases=3 Bus1=71701256.1.2.3 Bus2=71701221.1.2.3 LineCode=336_ACSR_3PH_12KV_3 Length=0.010122 units=km
New Line.105969465$P5553090-1 phases=1 Bus1=105969468.1 Bus2=105880547.1 LineCode=2_CLP_1PH_12KV_1 Length=0.001192 units=km
New Line.105969680$P5600480-1 phases=1 Bus1=105969683.3 Bus2=105880790.3 LineCode=2_CLP_1PH_12KV_1 Length=0.001561 units=km
New Line.105969730$P5600476-2 phases=1 Bus1=105969733.3 Bus2=105880889.3 LineCode=2_CLP_1PH_12KV_1 Length=0.000994 units=km
New Line.105969905$P5553095-2 phases=1 Bus1=105969908.1 Bus2=105881273.1 LineCode=2_CLP_1PH_12KV_1 Length=0.00084 units=km
New Line.182281575$182281703 phases=3 Bus1=182281577.1.2.3 Bus2=182281705.1.2.3 LineCode=1/0_JCN_3PH_12KV_3 Length=0.051436 units=km
New Line.P5752416-2$ND223247042 phases=1 Bus1=223246396.1 Bus2=223247042.1 LineCode=1/0_JCN_1PH_12KV_1 Length=0.000687 units=km
New Line.PH142E$236907277 phases=3 Bus1=236906751.1.2.3 Bus2=236907279.1.2.3 LineCode=1/0_JCN_3PH_12KV_3 Length=0.098177 units=km
New Line.ND240499056$P5749184-2 phases=1 Bus1=240499056.3 Bus2=240498495.3 LineCode=1/0_JCN_1PH_12KV_1 Length=0.003651 units=km
New Line.ND240499056$240499822 phases=1 Bus1=240499056.3 Bus2=240499824.3 LineCode=1/0_JCN_1PH_12KV_1 Length=0.070767 units=km
New Line.210653380$P5511747-1 phases=1 Bus1=74071618.1 Bus2=210653383.1 LineCode=2_CLP_1PH_12KV_1 Length=0.001732 units=km
New Line.PME2985-2$170774746 phases=1 Bus1=105498990.2 Bus2=170774749.2 LineCode=2_CLP_1PH_12KV_1 Length=0.002438 units=km
New Line.ND240498447$ND240498424 phases=3 Bus1=240498447.1.2.3 Bus2=240498424.1.2.3 LineCode=1/0_JCN_3PH_12KV_3 Length=0.004848 units=km
New Line.ND240498447$240499365 phases=1 Bus1=240498447.3 Bus2=240499367.3 LineCode=1/0_JCN_1PH_12KV_1 Length=0.156832 units=km
New Line.B5178363-1$B5178364-2 phases=1 Bus1=36515821.3 Bus2=36515884.3 LineCode=350_AL_1PH_12KV_1 Length=0.153536 units=km
New Line.P5458737-2$ND36547891 phases=1 Bus1=36547891.2 Bus2=36531453.2 LineCode=2_CLP_1PH_12KV_1 Length=0.243674 units=km
New Line.P5458735-2$ND36547891 phases=1 Bus1=36547891.2 Bus2=36531525.2 LineCode=2_CLP_1PH_12KV_1 Length=0.18754 units=km
New Line.ND223246703$ND223247042 phases=1 Bus1=223247042.1 Bus2=223246703.1 LineCode=1/0_JCN_1PH_12KV_1 Length=0.059172 units=km
New Line.ND223247042$223247203 phases=1 Bus1=223247042.1 Bus2=223247206.1 LineCode=1/0_JCN_1PH_12KV_1 Length=0.00124 units=km
New Line.P5749193-2$240499587 phases=1 Bus1=240499112.2 Bus2=240499590.2 LineCode=1/0_JCN_1PH_12KV_1 Length=0.001956 units=km
New Line.182281703$P5631017-A phases=3 Bus1=182281706.1.2.3 Bus2=182281605.1.2.3 LineCode=1/0_JCN_3PH_12KV_3 Length=0.003145 units=km
New Line.ND223246703$223247272 phases=1 Bus1=223246703.1 Bus2=223247274.1 LineCode=1/0_JCN_1PH_12KV_1 Length=0.06111 units=km
New Line.ND223246703$223247299 phases=1 Bus1=223246703.1 Bus2=223247301.1 LineCode=1/0_JCN_1PH_12KV_1 Length=0.045485 units=km
New Line.236907277$ND236907161 phases=3 Bus1=236907280.1.2.3 Bus2=236907161.1.2.3 LineCode=1/0_JCN_3PH_12KV_3 Length=0.007284 units=km
New Line.36546370$P5464770-1 phases=1 Bus1=36546373.1 Bus2=36546386.1 LineCode=750_CLP_1PH_12KV_1 Length=0.003304 units=km
New Line.4693903E$ND109463985 phases=3 Bus1=109931442.1.2.3 Bus2=109463985.1.2.3 LineCode=750_CLP_3PH_12KV_3 Length=0.026865 units=km
New Line.PME2985-3$170774596 phases=1 Bus1=105498999.3 Bus2=170774599.3 LineCode=2_CLP_1PH_12KV_1 Length=0.392224 units=km
New Line.PME2985-1$170774780 phases=1 Bus1=105499008.1 Bus2=170774783.1 LineCode=2_CLP_1PH_12KV_1 Length=0.085023 units=km
New Line.ND240498424$223247128 phases=1 Bus1=240498424.1 Bus2=223247130.1 LineCode=1/0_JCN_1PH_12KV_1 Length=0.173714 units=km
New Line.240292246$P5462011-1 phases=1 Bus1=36532649.2 Bus2=240292249.2 LineCode=2_CLP_1PH_12KV_1 Length=0.134509 units=km
New Line.ND240498424$ND240498394 phases=3 Bus1=240498424.1.2.3 Bus2=240498394.1.2.3 LineCode=1/0_JCN_3PH_12KV_3 Length=0.0069 units=km
New Line.240499822$P5749185-2 phases=1 Bus1=240499825.3 Bus2=240498631.3 LineCode=1/0_JCN_1PH_12KV_1 Length=0.004784 units=km
New Line.P5752425-1$240499906 phases=1 Bus1=240498690.3 Bus2=240499909.3 LineCode=1/0_JCN_1PH_12KV_1 Length=0.002652 units=km
New Line.P5553090-2$105969490 phases=1 Bus1=105880556.1 Bus2=105969493.1 LineCode=2_CLP_1PH_12KV_1 Length=0.001438 units=km
New Line.P5600480-2$105969705 phases=1 Bus1=105880799.3 Bus2=105969708.3 LineCode=2_CLP_1PH_12KV_1 Length=0.001486 units=km
New Line.P5600476-1$105969755 phases=1 Bus1=105880880.3 Bus2=105969758.3 LineCode=2_CLP_1PH_12KV_1 Length=0.001957 units=km
New Line.210653380$210653416 phases=1 Bus1=210653382.1 Bus2=210653418.1 LineCode=2_CLP_1PH_12KV_1 Length=0.101099 units=km
New Line.223247203$223247230 phases=1 Bus1=223247205.1 Bus2=223247232.1 LineCode=1/0_JCN_1PH_12KV_1 Length=0.043388 units=km
New Line.ND236907161$236907304 phases=2 Bus1=236907161.1.2 Bus2=236907307.1.2 LineCode=1/0_JCN_2PH_12KV_2 Length=0.00758 units=km
New Line.ND236907161$236907329 phases=2 Bus1=236907161.2.3 Bus2=236907332.2.3 LineCode=1/0_JCN_2PH_12KV_2 Length=0.011169 units=km
New Line.240499587$240499622 phases=1 Bus1=240499589.2 Bus2=240499624.2 LineCode=1/0_JCN_1PH_12KV_1 Length=0.099867 units=km
New Line.P5749184-1$240499772 phases=1 Bus1=240498486.3 Bus2=240499775.3 LineCode=1/0_JCN_1PH_12KV_1 Length=0.002765 units=km
New Line.223247272$P5752419-2 phases=1 Bus1=223247275.1 Bus2=223246809.1 LineCode=1/0_JCN_1PH_12KV_1 Length=0.001156 units=km
New Line.223247299$P5752420-1 phases=1 Bus1=223247302.1 Bus2=223246941.1 LineCode=1/0_JCN_1PH_12KV_1 Length=0.001119 units=km
New Line.240499906$240499879 phases=1 Bus1=240499908.3 Bus2=240499881.3 LineCode=1/0_JCN_1PH_12KV_1 Length=0.035242 units=km
New Line.105969490$105969515 phases=1 Bus1=105969492.1 Bus2=105969517.1 LineCode=2_CLP_1PH_12KV_1 Length=0.147979 units=km
New Line.105969755$105969780 phases=1 Bus1=105969757.3 Bus2=105969782.3 LineCode=2_CLP_1PH_12KV_1 Length=0.202081 units=km
New Line.105969705$105969830 phases=1 Bus1=105969707.3 Bus2=105969832.3 LineCode=2_CLP_1PH_12KV_1 Length=0.253127 units=km
New Line.223247230$P5752418-1 phases=1 Bus1=223247233.1 Bus2=223246615.1 LineCode=1/0_JCN_1PH_12KV_1 Length=0.001077 units=km
New Line.236907329$236907354 phases=2 Bus1=236907331.2.3 Bus2=236907356.2.3 LineCode=1/0_JCN_2PH_12KV_2 Length=0.036757 units=km
New Line.236907304$236907379 phases=2 Bus1=236907306.1.2 Bus2=236907381.1.2 LineCode=1/0_JCN_2PH_12KV_2 Length=0.061497 units=km
New Line.240499622$P5749194-1 phases=1 Bus1=240499625.2 Bus2=240499178.2 LineCode=1/0_JCN_1PH_12KV_1 Length=0.001924 units=km
New Line.240499772$240499747 phases=1 Bus1=240499774.3 Bus2=240499749.3 LineCode=1/0_JCN_1PH_12KV_1 Length=0.13276 units=km
New Line.PH253E$ND36548097 phases=3 Bus1=36530578.1.2.3 Bus2=36548097.1.2.3 LineCode=350_CLP_3PH_12KV_3 Length=0.020643 units=km
New Line.210653416$P5511748-2 phases=1 Bus1=210653419.1 Bus2=74071539.1 LineCode=2_CLP_1PH_12KV_1 Length=0.001225 units=km
New Line.166033017$ND36548097 phases=3 Bus1=36548097.1.2.3 Bus2=166033019.1.2.3 LineCode=350_CLP_3PH_12KV_3 Length=0.936968 units=km
New Line.ND36548097$196892823 phases=3 Bus1=36548097.1.2.3 Bus2=196892825.1.2.3 LineCode=1/0_CLP_3PH_12KV_3 Length=0.183789 units=km
New Line.36533314$36546278 phases=1 Bus1=36533316.1 Bus2=36546280.1 LineCode=750_CLP_1PH_12KV_1 Length=0.348337 units=km
New Line.P5630981-1$ND36548926 phases=1 Bus1=36516100.3 Bus2=36548926.3 LineCode=350_AL_1PH_12KV_1 Length=0.072916 units=km
New Line.105969805$170774746 phases=1 Bus1=170774748.2 Bus2=105969807.2 LineCode=2_CLP_1PH_12KV_1 Length=0.679499 units=km