! OpenDSS script generated from multiconductor network
Clear

New Circuit.mc_network basekv=12.0 pu=1.000000 angle=0.00 frequency=60.0 phases=3 Mvasc3=143993 Mvasc1=47997.6
~ bus1=-8888882190526.1.2.3

! Line codes
New LineCode.1000_JCN_3PH_12KV_3 nphases=3 units=km Rmatrix=[ 0.017788 | 0 0.017788 | 0 0 0.017788 ] Xmatrix=[ 0.026926 | 0 0.026926 | 0 0 0.026926 ] Cmatrix=[ 0 | 0 0 | 0 0 0 ]
New LineCode.336_ACSR_3PH_336_ACSR_N_12KV_4 nphases=4 units=km Rmatrix=[ 0.012433 | 0 0.012433 | 0 0 0.012433 | 0 0 0 0.012433 ] Xmatrix=[ 0.024793 | 0 0.024793 | 0 0 0.024793 | 0 0 0 0.024793 ] Cmatrix=[ 0 | 0 0 | 0 0 0 | 0 0 0 0 ]
New LineCode.2_CLP_1PH_12KV_1 nphases=1 units=km Rmatrix=[ 0.13218 ] Xmatrix=[ 0.027861 ] Cmatrix=[ 0 ]
New LineCode.4_ACSR_3PH_12KV_3 nphases=3 units=km Rmatrix=[ 0.538221 | 0 0.538221 | 0 0 0.538221 ] Xmatrix=[ 0.197496 | 0 0.197496 | 0 0 0.197496 ] Cmatrix=[ 0 | 0 0 | 0 0 0 ]
New LineCode.4_CU_2PH_4_CU_N_12KV_3_N nphases=3 units=km Rmatrix=[ 0.00826 | 0 0.00826 | 0 0 0.00826 ] Xmatrix=[ 0.004087 | 0 0.004087 | 0 0 0.004087 ] Cmatrix=[ 0 | 0 0 | 0 0 0 ]
New LineCode.750_CLP_3PH_12KV_3 nphases=3 units=km Rmatrix=[ 0.006064 | 0 0.006064 | 0 0 0.006064 ] Xmatrix=[ 0.007448 | 0 0.007448 | 0 0 0.007448 ] Cmatrix=[ 0 | 0 0 | 0 0 0 ]
New LineCode.350_JCN_3PH_12KV_3 nphases=3 units=km Rmatrix=[ 0.040979 | 0 0.040979 | 0 0 0.040979 ] Xmatrix=[ 0.031135 | 0 0.031135 | 0 0 0.031135 ] Cmatrix=[ 0 | 0 0 | 0 0 0 ]
New LineCode.2_JCN_3PH_12KV_3 nphases=3 units=km Rmatrix=[ 0.01853 | 0 0.01853 | 0 0 0.01853 ] Xmatrix=[ 0.003906 | 0 0.003906 | 0 0 0.003906 ] Cmatrix=[ 0 | 0 0 | 0 0 0 ]
New LineCode.1/0_CLP_1PH_12KV_1 nphases=1 units=km Rmatrix=[ 0.150277 ] Xmatrix=[ 0.045932 ] Cmatrix=[ 0 ]
New LineCode.2_ACSR_3PH_12KV_3 nphases=3 units=km Rmatrix=[ 0.081948 | 0 0.081948 | 0 0 0.081948 ] Xmatrix=[ 0.044056 | 0 0.044056 | 0 0 0.044056 ] Cmatrix=[ 0 | 0 0 | 0 0 0 ]
New LineCode.2_CLP_3PH_12KV_3 nphases=3 units=km Rmatrix=[ 0.145104 | 0 0.145104 | 0 0 0.145104 ] Xmatrix=[ 0.030585 | 0 0.030585 | 0 0 0.030585 ] Cmatrix=[ 0 | 0 0 | 0 0 0 ]
New LineCode.1/0_JCN_3PH_12KV_3 nphases=3 units=km Rmatrix=[ 0.115952 | 0 0.115952 | 0 0 0.115952 ] Xmatrix=[ 0.03544 | 0 0.03544 | 0 0 0.03544 ] Cmatrix=[ 0 | 0 0 | 0 0 0 ]
New LineCode.350_AL_3PH_12KV_3 nphases=3 units=km Rmatrix=[ 0.006708 | 0 0.006708 | 0 0 0.006708 ] Xmatrix=[ 0.005097 | 0 0.005097 | 0 0 0.005097 ] Cmatrix=[ 0 | 0 0 | 0 0 0 ]
New LineCode.1/0_CLP_3PH_12KV_3 nphases=3 units=km Rmatrix=[ 0.288359 | 0 0.288359 | 0 0 0.288359 ] Xmatrix=[ 0.088136 | 0 0.088136 | 0 0 0.088136 ] Cmatrix=[ 0 | 0 0 | 0 0 0 ]
New LineCode.336_ACSR_3PH_12KV_3 nphases=3 units=km Rmatrix=[ 0.001906 | 0 0.001906 | 0 0 0.001906 ] Xmatrix=[ 0.004269 | 0 0.004269 | 0 0 0.004269 ] Cmatrix=[ 0 | 0 0 | 0 0 0 ]
New LineCode.1/0_JCN_1PH_12KV_1 nphases=1 units=km Rmatrix=[ 0.005098 ] Xmatrix=[ 0.001558 ] Cmatrix=[ 0 ]
New LineCode.1/0_JCN_2PH_12KV_2 nphases=2 units=km Rmatrix=[ 0.322091 | 0 0.322091 ] Xmatrix=[ 0.098446 | 0 0.098446 ] Cmatrix=[ 0 | 0 0 ]
New LineCode.2_CLP_2PH_12KV_2 nphases=2 units=km Rmatrix=[ 0.54806 | 0 0.54806 ] Xmatrix=[ 0.115521 | 0 0.115521 ] Cmatrix=[ 0 | 0 0 ]
New LineCode.1/0_ACSR_3PH_12KV_3 nphases=3 units=km Rmatrix=[ 0.000843 | 0 0.000843 | 0 0 0.000843 ] Xmatrix=[ 0.000671 | 0 0.000671 | 0 0 0.000671 ] Cmatrix=[ 0 | 0 0 | 0 0 0 ]
New LineCode.1/0_ACSR_3PH_1/0_ACSR_N_12KV_4 nphases=4 units=km Rmatrix=[ 0.115235 | 0 0.115235 | 0 0 0.115235 | 0 0 0 0.115235 ] Xmatrix=[ 0.083279 | 0 0.083279 | 0 0 0.083279 | 0 0 0 0.083279 ] Cmatrix=[ 0 | 0 0 | 0 0 0 | 0 0 0 0 ]
New LineCode.4_ACSR_2PH_12KV_2 nphases=2 units=km Rmatrix=[ 0.266914 | 0 0.266914 ] Xmatrix=[ 0.097942 | 0 0.097942 ] Cmatrix=[ 0 | 0 0 ]
New LineCode.1/0_ACSR_2PH_1/0_ACSR_N_12KV_3_N nphases=3 units=km Rmatrix=[ 0.00087 | 0 0.00087 | 0 0 0.00087 ] Xmatrix=[ 0.000629 | 0 0.000629 | 0 0 0.000629 ] Cmatrix=[ 0 | 0 0 | 0 0 0 ]
New LineCode.2_ACSR_3PH_12KV_2 nphases=2 units=km Rmatrix=[ 0.081948 | 0 0.081948 ] Xmatrix=[ 0.044056 | 0 0.044056 ] Cmatrix=[ 0 | 0 0 ]
New LineCode.336_ACSR_2PH_12KV_2 nphases=2 units=km Rmatrix=[ 0.009544 | 0 0.009544 ] Xmatrix=[ 0.021373 | 0 0.021373 ] Cmatrix=[ 0 | 0 0 ]
New LineCode.2_ACSR_2PH_2_ACSR_N_12KV_3_N nphases=3 units=km Rmatrix=[ 0.003274 | 0 0.003274 | 0 0 0.003274 ] Xmatrix=[ 0.001586 | 0 0.001586 | 0 0 0.001586 ] Cmatrix=[ 0 | 0 0 | 0 0 0 ]
New LineCode.2_ACSR_2PH_12KV_2 nphases=2 units=km Rmatrix=[ 0.004546 | 0 0.004546 ] Xmatrix=[ 0.002444 | 0 0.002444 ] Cmatrix=[ 0 | 0 0 ]
New LineCode.1/0_ACSR_3PH_12KV_4 nphases=4 units=km Rmatrix=[ 0.000843 | 0 0.000843 | 0 0 0.000843 | 0 0 0 0.000843 ] Xmatrix=[ 0.000671 | 0 0.000671 | 0 0 0.000671 | 0 0 0 0.000671 ] Cmatrix=[ 0 | 0 0 | 0 0 0 | 0 0 0 0 ]
New LineCode.12_ACSR_3PH_12KV_4 nphases=4 units=km Rmatrix=[ 0.140409 | 0 0.140409 | 0 0 0.140409 | 0 0 0 0.140409 ] Xmatrix=[ 0.047228 | 0 0.047228 | 0 0 0.047228 | 0 0 0 0.047228 ] Cmatrix=[ 0 | 0 0 | 0 0 0 | 0 0 0 0 ]
New LineCode.12_ACSR_3PH_12_ACSR_N_12KV_4 nphases=4 units=km Rmatrix=[ 0.09369 | 0 0.09369 | 0 0 0.09369 | 0 0 0 0.09369 ] Xmatrix=[ 0.031513 | 0 0.031513 | 0 0 0.031513 | 0 0 0 0.031513 ] Cmatrix=[ 0 | 0 0 | 0 0 0 | 0 0 0 0 ]
New LineCode.1/0_ACSR_2PH_12KV_2 nphases=2 units=km Rmatrix=[ 0.113587 | 0 0.113587 ] Xmatrix=[ 0.090438 | 0 0.090438 ] Cmatrix=[ 0 | 0 0 ]
New LineCode.4_ACSR_3PH_12KV_4 nphases=4 units=km Rmatrix=[ 0.538221 | 0 0.538221 | 0 0 0.538221 | 0 0 0 0.538221 ] Xmatrix=[ 0.197496 | 0 0.197496 | 0 0 0.197496 | 0 0 0 0.197496 ] Cmatrix=[ 0 | 0 0 | 0 0 0 | 0 0 0 0 ]
New LineCode.12_ACSR_3PH_12KV_3 nphases=3 units=km Rmatrix=[ 0.140409 | 0 0.140409 | 0 0 0.140409 ] Xmatrix=[ 0.047228 | 0 0.047228 | 0 0 0.047228 ] Cmatrix=[ 0 | 0 0 | 0 0 0 ]

! Lines
New Line.14630$1501498E phases=3 Bus1=-8888882190526.1.2.3 Bus2=48073041.1.2.3 LineCode=1000_JCN_3PH_12KV_3 Length=0.116234 units=km
New Line.ND108101354$4683763E phases=4 Bus1=108101354.0.1.2.3 Bus2=108101332.0.1.2.3 LineCode=336_ACSR_3PH_336_ACSR_N_12KV_4 Length=0.002344 units=km
New Line.FD1463001$ND51573309 phases=1 Bus1=51571993.2 Bus2=51573309.2 LineCode=2_CLP_1PH_12KV_1 Length=0.012372 units=km
New Line.P5467713-1$ND51573309 phases=1 Bus1=51573309.2 Bus2=51572009.2 LineCode=2_CLP_1PH_12KV_1 Length=0.106296 units=km
New Line.P5467712-2$ND51573309 phases=1 Bus1=51573309.2 Bus2=51572090.2 LineCode=2_CLP_1PH_12KV_1 Length=0.079597 units=km
New Line.4683763E$P5608126-2 phases=1 Bus1=108101333.2 Bus2=108101393.2 LineCode=2_CLP_1PH_12KV_1 Length=0.006741 units=km
New Line.ND101640803$BF12888 phases=3 Bus1=101640803.1.2.3 Bus2=204081996.1.2.3 LineCode=4_ACSR_3PH_12KV_3 Length=0.016942 units=km
New Line.PS1516$1501498E phases=4 Bus1=48073040.0.1.2.3 Bus2=157841598.0.1.2.3 LineCode=336_ACSR_3PH_336_ACSR_N_12KV_4 Length=0.180321 units=km
New Line.ND51573640$PS1516 phases=4 Bus1=157841599.0.1.2.3 Bus2=51573640.0.1.2.3 LineCode=336_ACSR_3PH_336_ACSR_N_12KV_4 Length=0.725805 units=km
New Line.ND51573640$FD1463001 phases=3 Bus1=51573640.0.2.3 Bus2=51571992.0.2.3 LineCode=4_CU_2PH_4_CU_N_12KV_3_N Length=0.030366 units=km
New Line.ND51573640$ND51573447 phases=4 Bus1=51573640.0.1.2.3 Bus2=51573447.0.1.2.3 LineCode=336_ACSR_3PH_336_ACSR_N_12KV_4 Length=0.068268 units=km
New Line.ND51573447$ND108101354 phases=4 Bus1=51573447.0.1.2.3 Bus2=108101354.0.1.2.3 LineCode=336_ACSR_3PH_336_ACSR_N_12KV_4 Length=0.045022 units=km
New Line.ND51573447$PS2309 phases=4 Bus1=51573447.0.1.2.3 Bus2=51572918.0.1.2.3 LineCode=336_ACSR_3PH_336_ACSR_N_12KV_4 Length=0.034116 units=km
New Line.ND108101354$ND51573619 phases=4 Bus1=108101354.0.1.2.3 Bus2=51573619.0.1.2.3 LineCode=336_ACSR_3PH_336_ACSR_N_12KV_4 Length=0.083785 units=km
New Line.ND51573619$ND101640803 phases=4 Bus1=51573619.0.1.2.3 Bus2=101640803.0.1.2.3 LineCode=336_ACSR_3PH_336_ACSR_N_12KV_4 Length=0.041204 units=km
New Line.ND51573619$ND65590865 phases=4 Bus1=51573619.0.1.2.3 Bus2=65590865.0.1.2.3 LineCode=336_ACSR_3PH_336_ACSR_N_12KV_4 Length=0.12288 units=km
New Line.P5591499-2$144761205 phases=1 Bus1=144761208.3 Bus2=144760527.3 LineCode=2_CLP_1PH_12KV_1 Length=0.001536 units=km
New Line.188610874$P5435727-1 phases=1 Bus1=51572203.2 Bus2=188610877.2 LineCode=2_CLP_1PH_12KV_1 Length=0.001426 units=km
New Line.196769081$P5393430-1 phases=1 Bus1=196769084.1 Bus2=51571087.1 LineCode=2_CLP_1PH_12KV_1 Length=0.001312 units=km
New Line.4519889E$GS2716-4 phases=3 Bus1=90354496.1.2.3 Bus2=90354431.1.2.3 LineCode=750_CLP_3PH_12KV_3 Length=0.393966 units=km
New Line.166288201$P5351200-1 phases=1 Bus1=48075411.1 Bus2=166288204.1 LineCode=2_CLP_1PH_12KV_1 Length=0.00215 units=km
New Line.BF12888$1536068E phases=3 Bus1=204081995.1.2.3 Bus2=101640817.1.2.3 LineCode=4_ACSR_3PH_12KV_3 Length=0.015342 units=km
New Line.188610756$188610874 phases=1 Bus1=188610876.2 Bus2=188610758.2 LineCode=2_CLP_1PH_12KV_1 Length=0.120239 units=km
New Line.P5591499-1$144761180 phases=1 Bus1=144760518.3 Bus2=144761183.3 LineCode=2_CLP_1PH_12KV_1 Length=0.002019 units=km
New Line.P5379137-2$166288201 phases=1 Bus1=166288203.1 Bus2=48075492.1 LineCode=2_CLP_1PH_12KV_1 Length=0.159834 units=km
New Line.188610756$P5435728-2 phases=1 Bus1=188610759.2 Bus2=51572284.2 LineCode=2_CLP_1PH_12KV_1 Length=0.002404 units=km
New Line.144761180$ND144761066 phases=1 Bus1=144761182.3 Bus2=144761066.3 LineCode=2_CLP_1PH_12KV_1 Length=0.102198 units=km
New Line.144761087$ND144761066 phases=1 Bus1=144761066.3 Bus2=144761089.3 LineCode=2_CLP_1PH_12KV_1 Length=0.115021 units=km
New Line.ND144761066$144761114 phases=1 Bus1=144761066.3 Bus2=144761116.3 LineCode=2_CLP_1PH_12KV_1 Length=0.101879 units=km
New Line.ND144761066$144761155 phases=1 Bus1=144761066.3 Bus2=144761157.3 LineCode=2_CLP_1PH_12KV_1 Length=0.059498 units=km
New Line.PH096E$PME6369-1 phases=3 Bus1=237148392.1.2.3 Bus2=237148448.1.2.3 LineCode=350_JCN_3PH_12KV_3 Length=0.239966 units=km
New Line.4793361EP1$140746443 phases=3 Bus1=140746339.1.2.3 Bus2=140746445.1.2.3 LineCode=2_JCN_3PH_12KV_3 Length=0.042582 units=km
New Line.P5619167-1$140746443 phases=3 Bus1=140746446.1.2.3 Bus2=140746394.1.2.3 LineCode=2_JCN_3PH_12KV_3 Length=0.000863 units=km
New Line.B5156296-1$FD10655 phases=1 Bus1=51571983.3 Bus2=48073107.3 LineCode=1/0_CLP_1PH_12KV_1 Length=0.123743 units=km
New Line.B5156300-2$FD10656 phases=1 Bus1=51571973.3 Bus2=48073476.3 LineCode=1/0_CLP_1PH_12KV_1 Length=0.068841 units=km
New Line.879744E$ND101640904 phases=3 Bus1=101640904.1.2.3 Bus2=69747890.1.2.3 LineCode=2_ACSR_3PH_12KV_3 Length=0.005526 units=km
New Line.B5155924-1$FD10657 phases=1 Bus1=51571943.2 Bus2=48073827.2 LineCode=1/0_CLP_1PH_12KV_1 Length=0.150523 units=km
New Line.879744E$213171429 phases=3 Bus1=69747891.1.2.3 Bus2=213171431.1.2.3 LineCode=2_CLP_3PH_12KV_3 Length=0.159506 units=km
New Line.B5156296-2$ND51573260 phases=1 Bus1=48073116.3 Bus2=51573260.3 LineCode=1/0_CLP_1PH_12KV_1 Length=0.213169 units=km
New Line.B5156295-2$ND51573260 phases=1 Bus1=51573260.3 Bus2=48073188.3 LineCode=1/0_CLP_1PH_12KV_1 Length=0.033404 units=km
New Line.B5156297-2$ND51573260 phases=1 Bus1=51573260.3 Bus2=48073404.3 LineCode=1/0_CLP_1PH_12KV_1 Length=0.125502 units=km
New Line.B5156300-1$ND51573274 phases=1 Bus1=48073467.3 Bus2=51573274.3 LineCode=1/0_CLP_1PH_12KV_1 Length=0.067859 units=km
New Line.B5156299-2$ND51573274 phases=1 Bus1=51573274.3 Bus2=48073548.3 LineCode=1/0_CLP_1PH_12KV_1 Length=0.021316 units=km
New Line.B5156298-1$ND51573274 phases=1 Bus1=51573274.3 Bus2=48073611.3 LineCode=1/0_CLP_1PH_12KV_1 Length=0.151442 units=km
New Line.B5155925-1$B5155924-2 phases=1 Bus1=48073836.2 Bus2=51571650.2 LineCode=1/0_CLP_1PH_12KV_1 Length=0.093951 units=km
New Line.213171429$P5511450-1 phases=3 Bus1=213171432.1.2.3 Bus2=69747929.1.2.3 LineCode=2_CLP_3PH_12KV_3 Length=0.000849 units=km
New Line.B5156295-1$B5156294-2 phases=1 Bus1=48073179.3 Bus2=48073260.3 LineCode=1/0_CLP_1PH_12KV_1 Length=0.016989 units=km
New Line.B5178419-1$B5156298-2 phases=1 Bus1=48073620.3 Bus2=48073683.3 LineCode=1/0_CLP_1PH_12KV_1 Length=0.087105 units=km
New Line.B5155925-2$B5155926-1 phases=1 Bus1=51571659.2 Bus2=48073899.2 LineCode=1/0_CLP_1PH_12KV_1 Length=0.058161 units=km
New Line.P5379138-1$P5379137-1 phases=1 Bus1=48075483.1 Bus2=48075555.1 LineCode=2_CLP_1PH_12KV_1 Length=0.135437 units=km
New Line.144761155$P5591498-2 phases=1 Bus1=144761158.3 Bus2=144760601.3 LineCode=2_CLP_1PH_12KV_1 Length=0.001896 units=km
New Line.P5591497-2$144761114 phases=1 Bus1=144761117.3 Bus2=144760720.3 LineCode=2_CLP_1PH_12KV_1 Length=0.001073 units=km
New Line.P5588165-1$144761087 phases=1 Bus1=144761090.3 Bus2=95064161.3 LineCode=2_CLP_1PH_12KV_1 Length=0.001144 units=km
New Line.PME6369-4$GS8430-1 phases=3 Bus1=237148430.1.2.3 Bus2=239857012.1.2.3 LineCode=350_JCN_3PH_12KV_3 Length=0.701968 units=km
New Line.B5205274-2$B5156294-1 phases=1 Bus1=48073251.3 Bus2=48073332.3 LineCode=1/0_CLP_1PH_12KV_1 Length=0.027011 units=km
New Line.B5155923-2$B5178419-2 phases=1 Bus1=48073692.3 Bus2=48073764.3 LineCode=1/0_CLP_1PH_12KV_1 Length=0.15967 units=km
New Line.B5169626-2$B5155926-2 phases=1 Bus1=48073908.2 Bus2=48073980.2 LineCode=1/0_CLP_1PH_12KV_1 Length=0.094577 units=km
New Line.PME6369-3$239893727 phases=3 Bus1=237148421.1.2.3 Bus2=239893729.1.2.3 LineCode=1/0_JCN_3PH_12KV_3 Length=0.387137 units=km
New Line.PME6369-2$0229473 phases=3 Bus1=237148439.1.2.3 Bus2=240723346.1.2.3 LineCode=1/0_JCN_3PH_12KV_3 Length=0.34891 units=km
New Line.4122716E$BS3341-T phases=3 Bus1=48074053.1.2.3 Bus2=152260263.1.2.3 LineCode=350_AL_3PH_12KV_3 Length=0.049278 units=km
New Line.ND101434041$2241867ET phases=4 Bus1=51573190.0.1.2.3 Bus2=101434041.0.1.2.3 LineCode=336_ACSR_3PH_336_ACSR_N_12KV_4 Length=0.00755 units=km
New Line.FD15029$P5411948-A phases=3 Bus1=48074040.1.2.3 Bus2=153254277.1.2.3 LineCode=1/0_CLP_3PH_12KV_3 Length=0.007826 units=km
New Line.1472285E$188600607 phases=3 Bus1=51572656.1.2.3 Bus2=188600609.1.2.3 LineCode=1/0_CLP_3PH_12KV_3 Length=0.012987 units=km
New Line.2241867E$ND101434041 phases=3 Bus1=101434041.1.2.3 Bus2=33290965.1.2.3 LineCode=336_ACSR_3PH_12KV_3 Length=0.022134 units=km
New Line.BS3341-R$204755679 phases=3 Bus1=152260246.1.2.3 Bus2=204755681.1.2.3 LineCode=1/0_CLP_3PH_12KV_3 Length=0.080097 units=km
New Line.BS3341-L$BS8375-T phases=3 Bus1=152260255.1.2.3 Bus2=51571506.1.2.3 LineCode=350_AL_3PH_12KV_3 Length=0.199854 units=km
New Line.95064278$P5588165-2 phases=1 Bus1=95064170.3 Bus2=95064281.3 LineCode=2_CLP_1PH_12KV_1 Length=0.000926 units=km
New Line.239893727$ND237148591 phases=3 Bus1=239893730.1.2.3 Bus2=237148591.1.2.3 LineCode=1/0_JCN_3PH_12KV_3 Length=0.020354 units=km
New Line.GS8430-2$P5766883-1 phases=1 Bus1=239857021.2 Bus2=239857346.2 LineCode=1/0_JCN_1PH_12KV_1 Length=0.374758 units=km
New Line.ND237148591$239893752 phases=2 Bus1=237148591.1.3 Bus2=239893755.1.3 LineCode=1/0_JCN_2PH_12KV_2 Length=0.052286 units=km
New Line.ND237148591$239893778 phases=1 Bus1=237148591.2 Bus2=239893781.2 LineCode=1/0_JCN_1PH_12KV_1 Length=0.032868 units=km
New Line.ND237148591$239893803 phases=1 Bus1=237148591.1 Bus2=239893806.1 LineCode=1/0_JCN_1PH_12KV_1 Length=0.052947 units=km
New Line.95064278$95064253 phases=1 Bus1=95064280.3 Bus2=95064255.3 LineCode=2_CLP_1PH_12KV_1 Length=0.117278 units=km
New Line.2241867E$212802187 phases=3 Bus1=33290966.1.2.3 Bus2=212802189.1.2.3 LineCode=2_CLP_3PH_12KV_3 Length=0.083788 units=km
New Line.188600607$P5504024-1 phases=3 Bus1=188600610.1.2.3 Bus2=51572808.1.2.3 LineCode=1/0_CLP_3PH_12KV_3 Length=0.005097 units=km
New Line.204755679$P5379127-A phases=3 Bus1=204755682.1.2.3 Bus2=153254188.1.2.3 LineCode=1/0_CLP_3PH_12KV_3 Length=0.002026 units=km
New Line.P5411948-B$204755736 phases=3 Bus1=153254295.1.2.3 Bus2=204755738.1.2.3 LineCode=1/0_CLP_3PH_12KV_3 Length=0.409039 units=km
New Line.B5318380-2$2241874E phases=1 Bus1=51571953.3 Bus2=48074078.3 LineCode=2_CLP_1PH_12KV_1 Length=0.087423 units=km
New Line.4320580E$830526E phases=3 Bus1=157732222.1.2.3 Bus2=157732197.1.2.3 LineCode=2_JCN_3PH_12KV_3 Length=0.049369 units=km
New Line.GS8430-4$PME6431-2 phases=3 Bus1=239857039.1.2.3 Bus2=239857190.1.2.3 LineCode=350_JCN_3PH_12KV_3 Length=0.184458 units=km
New Line.239893803$239893427 phases=1 Bus1=239893805.1 Bus2=239893429.1 LineCode=1/0_JCN_1PH_12KV_1 Length=0.366859 units=km
New Line.239893778$239893677 phases=1 Bus1=239893780.2 Bus2=239893679.2 LineCode=1/0_JCN_1PH_12KV_1 Length=0.157012 units=km
New Line.239893752$246303733 phases=2 Bus1=239893754.1.3 Bus2=246303735.1.3 LineCode=1/0_JCN_2PH_12KV_2 Length=0.207571 units=km
New Line.P5588164-1$95064253 phases=1 Bus1=95064256.3 Bus2=95064081.3 LineCode=2_CLP_1PH_12KV_1 Length=0.001198 units=km
New Line.239893427$ND239893141 phases=1 Bus1=239893430.1 Bus2=239893141.1 LineCode=1/0_JCN_1PH_12KV_1 Length=0.045741 units=km
New Line.246303733$ND246303025 phases=2 Bus1=246303736.1.3 Bus2=246303025.1.3 LineCode=1/0_JCN_2PH_12KV_2 Length=0.019808 units=km
New Line.239893677$ND246303429 phases=1 Bus1=239893680.2 Bus2=246303429.2 LineCode=1/0_JCN_1PH_12KV_1 Length=0.011171 units=km
New Line.ND239893141$239893402 phases=1 Bus1=239893141.1 Bus2=239893405.1 LineCode=1/0_JCN_1PH_12KV_1 Length=0.042947 units=km
New Line.ND239893141$239893452 phases=1 Bus1=239893141.1 Bus2=239893455.1 LineCode=1/0_JCN_1PH_12KV_1 Length=0.020409 units=km
New Line.ND246303429$239893702 phases=1 Bus1=246303429.2 Bus2=239893705.2 LineCode=1/0_JCN_1PH_12KV_1 Length=0.040741 units=km
New Line.ND246303429$246303622 phases=1 Bus1=246303429.2 Bus2=246303625.2 LineCode=1/0_JCN_1PH_12KV_1 Length=0.020443 units=km
New Line.ND246303025$246303761 phases=2 Bus1=246303025.1.3 Bus2=246303764.1.3 LineCode=1/0_JCN_2PH_12KV_2 Length=0.011599 units=km
New Line.ND246303025$246303787 phases=2 Bus1=246303025.1.3 Bus2=246303790.1.3 LineCode=1/0_JCN_2PH_12KV_2 Length=0.031195 units=km
New Line.4320583E$4320582E phases=3 Bus1=33260594.1.2.3 Bus2=105097863.1.2.3 LineCode=4_ACSR_3PH_12KV_3 Length=0.044528 units=km
New Line.ND164234831$ND206908599 phases=4 Bus1=206908535.0.1.2.3 Bus2=164234831.0.1.2.3 LineCode=336_ACSR_3PH_336_ACSR_N_12KV_4 Length=0.07266 units=km
New Line.212802187$P5476076-1 phases=3 Bus1=212802190.1.2.3 Bus2=33290921.1.2.3 LineCode=2_CLP_3PH_12KV_3 Length=0.004202 units=km
New Line.BS8375-L$ND51573572 phases=3 Bus1=51571498.1.2.3 Bus2=51573572.1.2.3 LineCode=1/0_CLP_3PH_12KV_3 Length=0.378797 units=km
New Line.BS8375-R$ND51573586 phases=3 Bus1=51571489.1.2.3 Bus2=51573586.1.2.3 LineCode=350_AL_3PH_12KV_3 Length=0.030096 units=km
New Line.2241866E$ND164234831 phases=4 Bus1=164234831.0.1.2.3 Bus2=164234805.0.1.2.3 LineCode=336_ACSR_3PH_336_ACSR_N_12KV_4 Length=0.00704 units=km
New Line.ND51573572$188610795 phases=1 Bus1=51573572.2 Bus2=188610797.2 LineCode=2_CLP_1PH_12KV_1 Length=0.00821 units=km
New Line.ND194610116$ND51573572 phases=3 Bus1=51573572.1.2.3 Bus2=194610116.1.2.3 LineCode=1/0_CLP_3PH_12KV_3 Length=0.053192 units=km
New Line.ND164234831$ND211395712 phases=4 Bus1=164234831.0.1.2.3 Bus2=211395712.0.1.2.3 LineCode=336_ACSR_3PH_336_ACSR_N_12KV_4 Length=0.057865 units=km
New Line.B5318384-2$2241878E phases=1 Bus1=51571963.2 Bus2=48074366.2 LineCode=2_CLP_1PH_12KV_1 Length=0.118769 units=km
New Line.ND51573586$P5178325-1 phases=3 Bus1=51573586.1.2.3 Bus2=48074728.1.2.3 LineCode=350_AL_3PH_12KV_3 Length=0.037488 units=km
New Line.239893702$239893277 phases=1 Bus1=239893704.2 Bus2=239893279.2 LineCode=1/0_JCN_1PH_12KV_1 Length=0.089876 units=km
New Line.239893402$239893377 phases=1 Bus1=239893404.1 Bus2=239893379.1 LineCode=1/0_JCN_1PH_12KV_1 Length=0.017662 units=km
New Line.239893452$239893491 phases=1 Bus1=239893454.1 Bus2=239893493.1 LineCode=1/0_JCN_1PH_12KV_1 Length=0.074411 units=km
New Line.246303622$246303649 phases=1 Bus1=246303624.2 Bus2=246303651.2 LineCode=1/0_JCN_1PH_12KV_1 Length=0.121597 units=km
New Line.246303787$246303839 phases=2 Bus1=246303789.1.3 Bus2=247093937.1.3 LineCode=1/0_JCN_2PH_12KV_2 Length=0.343145 units=km
New Line.246303761$247094013 phases=2 Bus1=246303763.1.3 Bus2=247094015.1.3 LineCode=1/0_JCN_2PH_12KV_2 Length=0.255768 units=km
New Line.4320582E$ND110486816 phases=3 Bus1=105097868.1.2.3 Bus2=110486816.1.2.3 LineCode=2_CLP_3PH_12KV_3 Length=0.043705 units=km
New Line.ND110486816$ND105097900 phases=3 Bus1=110486816.1.2.3 Bus2=105097900.1.2.3 LineCode=2_CLP_3PH_12KV_3 Length=0.019045 units=km
New Line.ND110486816$PME3023-2 phases=3 Bus1=110486816.1.2.3 Bus2=110486720.1.2.3 LineCode=2_CLP_3PH_12KV_3 Length=0.201687 units=km
New Line.P5766904-2$239893491 phases=1 Bus1=239893494.1 Bus2=237148720.1 LineCode=1/0_JCN_1PH_12KV_1 Length=0.006693 units=km
New Line.239893377$P5766907-1 phases=1 Bus1=239893380.1 Bus2=237148779.1 LineCode=1/0_JCN_1PH_12KV_1 Length=0.006389 units=km
New Line.239893277$P5766860-1 phases=1 Bus1=239893280.2 Bus2=237148944.2 LineCode=1/0_JCN_1PH_12KV_1 Length=0.014374 units=km
New Line.247094013$P5768578-2 phases=2 Bus1=247094016.1.3 Bus2=246303049.1.3 LineCode=1/0_JCN_2PH_12KV_2 Length=0.010135 units=km
New Line.246303649$P5768574-2 phases=1 Bus1=246303652.2 Bus2=246303452.2 LineCode=1/0_JCN_1PH_12KV_1 Length=0.006824 units=km
New Line.246303839$247094039 phases=2 Bus1=247093938.1.3 Bus2=247094042.1.3 LineCode=1/0_JCN_2PH_12KV_2 Length=0.025934 units=km
New Line.P5580701-1$ND105097900 phases=2 Bus1=105097900.2.3 Bus2=105097947.2.3 LineCode=2_CLP_2PH_12KV_2 Length=0.489988 units=km
New Line.ND51573572$BS8197-T phases=3 Bus1=51573572.1.2.3 Bus2=51571290.1.2.3 LineCode=1/0_CLP_3PH_12KV_3 Length=0.221375 units=km
New Line.204755736$P5476085-1 phases=3 Bus1=204755739.1.2.3 Bus2=51572611.1.2.3 LineCode=1/0_CLP_3PH_12KV_3 Length=0.004492 units=km
New Line.ND99998745$ND51573586 phases=3 Bus1=51573586.1.2.3 Bus2=99998745.1.2.3 LineCode=350_AL_3PH_12KV_3 Length=0.12007 units=km
New Line.ND101433944$ND211395712 phases=4 Bus1=211395712.0.1.2.3 Bus2=101433944.0.1.2.3 LineCode=336_ACSR_3PH_336_ACSR_N_12KV_4 Length=0.011926 units=km
New Line.ND99998745$188610835 phases=3 Bus1=99998745.1.2.3 Bus2=188610837.1.2.3 LineCode=2_CLP_3PH_12KV_3 Length=0.057427 units=km
New Line.ND194610116$ND194610132 phases=3 Bus1=194610116.1.2.3 Bus2=194610132.1.2.3 LineCode=1/0_CLP_3PH_12KV_3 Length=0.003564 units=km
New Line.204755691$P5379127-B phases=3 Bus1=153254206.1.2.3 Bus2=204755694.1.2.3 LineCode=1/0_CLP_3PH_12KV_3 Length=0.00431 units=km
New Line.B5318381-2$B5318380-1 phases=1 Bus1=48074069.3 Bus2=48074150.3 LineCode=2_CLP_1PH_12KV_1 Length=0.135407 units=km
New Line.P5205275-1$ND99998745 phases=3 Bus1=99998745.1.2.3 Bus2=48074776.1.2.3 LineCode=350_AL_3PH_12KV_3 Length=0.008612 units=km
New Line.2241866E$164234927 phases=3 Bus1=164234806.1.2.3 Bus2=164234929.1.2.3 LineCode=1/0_JCN_3PH_12KV_3 Length=0.067235 units=km
New Line.ND101433944$2241864E phases=4 Bus1=101433944.0.1.2.3 Bus2=200855205.0.1.2.3 LineCode=336_ACSR_3PH_336_ACSR_N_12KV_4 Length=0.130506 units=km
New Line.ND194610132$P5741279-2 phases=1 Bus1=194610132.3 Bus2=219432685.3 LineCode=1/0_CLP_1PH_12KV_1 Length=0.079965 units=km
New Line.ND194610132$BS8688-1 phases=3 Bus1=194610132.1.2.3 Bus2=51571232.1.2.3 LineCode=2_CLP_3PH_12KV_3 Length=0.040163 units=km
New Line.188610795$PME5724-1 phases=1 Bus1=188610798.2 Bus2=51572153.2 LineCode=2_CLP_1PH_12KV_1 Length=0.001895 units=km
New Line.BS8197-L$214988556 phases=3 Bus1=51571299.1.2.3 Bus2=214988558.1.2.3 LineCode=2_CLP_3PH_12KV_3 Length=0.020116 units=km
New Line.2241864E$RCS1780 phases=4 Bus1=200855205.0.1.2.3 Bus2=33388495.0.1.2.3 LineCode=336_ACSR_3PH_336_ACSR_N_12KV_4 Length=0.081696 units=km
New Line.B5318385-2$B5318384-1 phases=1 Bus1=48074357.2 Bus2=48074438.2 LineCode=2_CLP_1PH_12KV_1 Length=0.153651 units=km
New Line.247094039$246303813 phases=2 Bus1=247094041.1.3 Bus2=240835212.1.3 LineCode=1/0_JCN_2PH_12KV_2 Length=0.178159 units=km
New Line.P5379136-1$204755691 phases=3 Bus1=204755693.1.2.3 Bus2=51572563.1.2.3 LineCode=1/0_CLP_3PH_12KV_3 Length=0.069494 units=km
New Line.BS8197-R$ND51573301 phases=1 Bus1=51571282.1 Bus2=51573301.1 LineCode=1/0_CLP_1PH_12KV_1 Length=0.020282 units=km
New Line.188610835$P5568274-1 phases=3 Bus1=188610838.1.2.3 Bus2=99998765.1.2.3 LineCode=2_CLP_3PH_12KV_3 Length=0.005745 units=km
New Line.ND51573301$166288022 phases=1 Bus1=51573301.1 Bus2=166288024.1 LineCode=2_CLP_1PH_12KV_1 Length=0.05581 units=km
New Line.164234927$ND173174783 phases=3 Bus1=164234930.1.2.3 Bus2=173174783.1.2.3 LineCode=1/0_JCN_3PH_12KV_3 Length=0.00794 units=km
New Line.188610783$PME5724-1 phases=1 Bus1=51572154.2 Bus2=188610786.2 LineCode=2_CLP_1PH_12KV_1 Length=0.002215 units=km
New Line.B5318382-2$B5318381-1 phases=1 Bus1=48074141.3 Bus2=48074222.3 LineCode=2_CLP_1PH_12KV_1 Length=0.05334 units=km
New Line.ND51573301$ND51573566 phases=1 Bus1=51573301.1 Bus2=51573566.1 LineCode=1/0_CLP_1PH_12KV_1 Length=0.00838 units=km
New Line.BS8688-1$ND51573767 phases=1 Bus1=51571233.1 Bus2=51573767.1 LineCode=2_CLP_1PH_12KV_1 Length=0.011976 units=km
New Line.ND173174783$164234954 phases=3 Bus1=173174783.1.2.3 Bus2=164234957.1.2.3 LineCode=1/0_JCN_3PH_12KV_3 Length=0.008354 units=km
New Line.P5766907-2$239893352 phases=1 Bus1=237148788.1 Bus2=239893355.1 LineCode=1/0_JCN_1PH_12KV_1 Length=0.010406 units=km
New Line.P5766904-1$239893530 phases=1 Bus1=237148711.1 Bus2=239893533.1 LineCode=1/0_JCN_1PH_12KV_1 Length=0.001858 units=km
New Line.246303317$P5766860-2 phases=1 Bus1=237148953.2 Bus2=246303320.2 LineCode=1/0_JCN_1PH_12KV_1 Length=0.015009 units=km
New Line.P5768574-1$246303674 phases=1 Bus1=246303443.2 Bus2=246303677.2 LineCode=1/0_JCN_1PH_12KV_1 Length=0.004555 units=km
New Line.P5768578-1$247093987 phases=2 Bus1=246303040.1.3 Bus2=247093990.1.3 LineCode=1/0_JCN_2PH_12KV_2 Length=0.004886 units=km
New Line.ND51573566$166288076 phases=1 Bus1=51573566.1 Bus2=166288078.1 LineCode=2_CLP_1PH_12KV_1 Length=0.015371 units=km
New Line.212802132$ND173174783 phases=3 Bus1=173174783.1.2.3 Bus2=212802135.1.2.3 LineCode=1/0_JCN_3PH_12KV_3 Length=0.009348 units=km
New Line.B5178423-2$ND51573767 phases=1 Bus1=51573767.1 Bus2=48074988.1 LineCode=2_CLP_1PH_12KV_1 Length=0.019051 units=km
New Line.B5178134-2$ND51573566 phases=1 Bus1=51573566.1 Bus2=48075276.1 LineCode=1/0_CLP_1PH_12KV_1 Length=0.007217 units=km
New Line.214988556$P5178107-1 phases=3 Bus1=214988559.1.2.3 Bus2=51571159.1.2.3 LineCode=2_CLP_3PH_12KV_3 Length=0.005515 units=km
New Line.B5318386-2$B5318385-1 phases=1 Bus1=48074429.2 Bus2=48074510.2 LineCode=2_CLP_1PH_12KV_1 Length=0.056219 units=km
New Line.166288022$PME8985-1 phases=1 Bus1=166288025.1 Bus2=51571389.1 LineCode=2_CLP_1PH_12KV_1 Length=0.002757 units=km
New Line.ND51573378$188610783 phases=1 Bus1=188610785.2 Bus2=51573378.2 LineCode=2_CLP_1PH_12KV_1 Length=0.050643 units=km
New Line.164234954$164234979 phases=3 Bus1=164234956.1.2.3 Bus2=164234981.1.2.3 LineCode=1/0_JCN_3PH_12KV_3 Length=0.164479 units=km
New Line.212802144$212802132 phases=3 Bus1=212802134.1.2.3 Bus2=212802146.1.2.3 LineCode=1/0_JCN_3PH_12KV_3 Length=0.011752 units=km
New Line.4470141E$213171468 phases=3 Bus1=193306576.1.2.3 Bus2=213171470.1.2.3 LineCode=1/0_JCN_3PH_12KV_3 Length=0.054037 units=km
New Line.B5318383-2$B5318382-1 phases=1 Bus1=48074213.3 Bus2=48074294.3 LineCode=2_CLP_1PH_12KV_1 Length=0.164049 units=km
New Line.166288076$POS8381-1 phases=1 Bus1=166288079.1 Bus2=51571439.1 LineCode=2_CLP_1PH_12KV_1 Length=0.002915 units=km
New Line.P5435725-2$ND51573378 phases=1 Bus1=51573378.2 Bus2=51572428.2 LineCode=2_CLP_1PH_12KV_1 Length=0.004556 units=km
New Line.P5435729-2$ND51573378 phases=1 Bus1=51573378.2 Bus2=51572500.2 LineCode=2_CLP_1PH_12KV_1 Length=0.031606 units=km
New Line.166288049$PME8985-1 phases=1 Bus1=51571390.1 Bus2=166288052.1 LineCode=2_CLP_1PH_12KV_1 Length=0.003318 units=km
New Line.B5178422-1$B5178423-1 phases=1 Bus1=48074979.1 Bus2=48075051.1 LineCode=2_CLP_1PH_12KV_1 Length=0.095391 units=km
New Line.164234979$P5627067-1 phases=3 Bus1=164234982.1.2.3 Bus2=164234877.1.2.3 LineCode=1/0_JCN_3PH_12KV_3 Length=0.00264 units=km
New Line.166288101$POS8381-1 phases=1 Bus1=51571440.1 Bus2=166288104.1 LineCode=2_CLP_1PH_12KV_1 Length=0.002833 units=km
New Line.212802144$P5643644-1 phases=3 Bus1=212802147.1.2.3 Bus2=173174898.1.2.3 LineCode=1/0_JCN_3PH_12KV_3 Length=0.004544 units=km
New Line.1235716EP1$187933790 phases=3 Bus1=168965465.1.2.3 Bus2=187933792.1.2.3 LineCode=1/0_JCN_3PH_12KV_3 Length=0.041365 units=km
New Line.213171468$P5643617-A phases=3 Bus1=213171471.1.2.3 Bus2=193306659.1.2.3 LineCode=1/0_JCN_3PH_12KV_3 Length=0.001133 units=km
New Line.ND259060270$2241859E phases=3 Bus1=90354712.1.2.3 Bus2=259060270.1.2.3 LineCode=750_CLP_3PH_12KV_3 Length=0.053816 units=km
New Line.P5768584-2$246303813 phases=2 Bus1=246303816.1.3 Bus2=246303198.1.3 LineCode=1/0_JCN_2PH_12KV_2 Length=0.004846 units=km
New Line.239893352$239893327 phases=1 Bus1=239893354.1 Bus2=239893329.1 LineCode=1/0_JCN_1PH_12KV_1 Length=0.287722 units=km
New Line.239893530$239893569 phases=1 Bus1=239893532.1 Bus2=239893571.1 LineCode=1/0_JCN_1PH_12KV_1 Length=0.17829 units=km
New Line.246303317$240834851 phases=1 Bus1=246303319.2 Bus2=240834853.2 LineCode=1/0_JCN_1PH_12KV_1 Length=0.153134 units=km
New Line.B5318387-2$B5318386-1 phases=1 Bus1=48074501.2 Bus2=48074582.2 LineCode=2_CLP_1PH_12KV_1 Length=0.118174 units=km
New Line.P5435725-1$187933738 phases=1 Bus1=51572419.2 Bus2=187933740.2 LineCode=2_CLP_1PH_12KV_1 Length=0.069195 units=km
New Line.166288049$196768793 phases=1 Bus1=166288051.1 Bus2=196768795.1 LineCode=2_CLP_1PH_12KV_1 Length=0.115786 units=km
New Line.ND259060270$V5554051PT phases=3 Bus1=259060270.1.2.3 Bus2=259060288.1.2.3 LineCode=750_CLP_3PH_12KV_3 Length=0.002527 units=km
New Line.RCS2715-4$ND259060270 phases=3 Bus1=259060270.1.2.3 Bus2=90354800.1.2.3 LineCode=750_CLP_3PH_12KV_3 Length=0.005898 units=km
New Line.166288126$166288101 phases=1 Bus1=166288103.1 Bus2=166288128.1 LineCode=2_CLP_1PH_12KV_1 Length=0.273645 units=km
New Line.187933790$P5580696-1 phases=3 Bus1=187933793.1.2.3 Bus2=168965511.1.2.3 LineCode=1/0_JCN_3PH_12KV_3 Length=0.001301 units=km