! OpenDSS script generated from multiconductor network
Clear

New Circuit.mc_network basekv=16.0 pu=1.000000 angle=0.00 frequency=60.0 phases=3 Mvasc3=255987 Mvasc1=85329.1
~ bus1=-8888882187620.1.2.3

! Line codes
New LineCode.2_AL_2PH_16KV_2 nphases=2 units=km Rmatrix=[ 0.101091 | 0 0.101091 ] Xmatrix=[ 0.021308 | 0 0.021308 ] Cmatrix=[ 0 | 0 0 ]
New LineCode.1/0_JCN_2PH_16KV_2 nphases=2 units=km Rmatrix=[ 0.003936 | 0 0.003936 ] Xmatrix=[ 0.001203 | 0 0.001203 ] Cmatrix=[ 0 | 0 0 ]
New LineCode.2_CLP_2PH_16KV_2 nphases=2 units=km Rmatrix=[ 0.057753 | 0 0.057753 ] Xmatrix=[ 0.012173 | 0 0.012173 ] Cmatrix=[ 0 | 0 0 ]
New LineCode.6_CU_3PH_16KV_3 nphases=3 units=km Rmatrix=[ 0.001013 | 0 0.001013 | 0 0 0.001013 ] Xmatrix=[ 0.000359 | 0 0.000359 | 0 0 0.000359 ] Cmatrix=[ 0 | 0 0 | 0 0 0 ]
New LineCode.336_ACSR_3PH_16KV_3 nphases=3 units=km Rmatrix=[ 0.03149 | 0 0.03149 | 0 0 0.03149 ] Xmatrix=[ 0.070517 | 0 0.070517 | 0 0 0.070517 ] Cmatrix=[ 0 | 0 0 | 0 0 0 ]
New LineCode.4_ACSR_2PH_16KV_2 nphases=2 units=km Rmatrix=[ 0.063026 | 0 0.063026 ] Xmatrix=[ 0.023127 | 0 0.023127 ] Cmatrix=[ 0 | 0 0 ]
New LineCode.6_CU_2PH_16KV_2 nphases=2 units=km Rmatrix=[ 0.152989 | 0 0.152989 ] Xmatrix=[ 0.054228 | 0 0.054228 ] Cmatrix=[ 0 | 0 0 ]
New LineCode.336_ACSR_2PH_336_ACSR_N_16KV_3_N nphases=3 units=km Rmatrix=[ 0.000172 | 0 0.000172 | 0 0 0.000172 ] Xmatrix=[ 0.000344 | 0 0.000344 | 0 0 0.000344 ] Cmatrix=[ 0 | 0 0 | 0 0 0 ]
New LineCode.4_CU_2PH_16KV_2 nphases=2 units=km Rmatrix=[ 0.074401 | 0 0.074401 ] Xmatrix=[ 0.040549 | 0 0.040549 ] Cmatrix=[ 0 | 0 0 ]
New LineCode.1/0_ACSR_3PH_16KV_3 nphases=3 units=km Rmatrix=[ 0.044944 | 0 0.044944 | 0 0 0.044944 ] Xmatrix=[ 0.035784 | 0 0.035784 | 0 0 0.035784 ] Cmatrix=[ 0 | 0 0 | 0 0 0 ]
New LineCode.4_ACSR_3PH_16KV_3 nphases=3 units=km Rmatrix=[ 0.063891 | 0 0.063891 | 0 0 0.063891 ] Xmatrix=[ 0.023444 | 0 0.023444 | 0 0 0.023444 ] Cmatrix=[ 0 | 0 0 | 0 0 0 ]
New LineCode.UNK_UNK_2PH_16KV_2 nphases=2 units=km Rmatrix=[ 0.001988 | 0 0.001988 ] Xmatrix=[ 0.000608 | 0 0.000608 ] Cmatrix=[ 0 | 0 0 ]
New LineCode.2/0_CU_3PH_16KV_3 nphases=3 units=km Rmatrix=[ 1e-05 | 0 1e-05 | 0 0 1e-05 ] Xmatrix=[ 1e-05 | 0 1e-05 | 0 0 1e-05 ] Cmatrix=[ 0 | 0 0 | 0 0 0 ]
New LineCode.2_CLP_3PH_16KV_3 nphases=3 units=km Rmatrix=[ 0.015415 | 0 0.015415 | 0 0 0.015415 ] Xmatrix=[ 0.003249 | 0 0.003249 | 0 0 0.003249 ] Cmatrix=[ 0 | 0 0 | 0 0 0 ]
New LineCode.1000_CLP_3PH_16KV_3 nphases=3 units=km Rmatrix=[ 0.013463 | 0 0.013463 | 0 0 0.013463 ] Xmatrix=[ 0.020379 | 0 0.020379 | 0 0 0.020379 ] Cmatrix=[ 0 | 0 0 | 0 0 0 ]
New LineCode.1/0_CLP_3PH_16KV_3 nphases=3 units=km Rmatrix=[ 0.024323 | 0 0.024323 | 0 0 0.024323 ] Xmatrix=[ 0.007434 | 0 0.007434 | 0 0 0.007434 ] Cmatrix=[ 0 | 0 0 | 0 0 0 ]
New LineCode.1/0_AL_3PH_16KV_3 nphases=3 units=km Rmatrix=[ 0.011136 | 0 0.011136 | 0 0 0.011136 ] Xmatrix=[ 0.003404 | 0 0.003404 | 0 0 0.003404 ] Cmatrix=[ 0 | 0 0 | 0 0 0 ]
New LineCode.2_AL_3PH_16KV_3 nphases=3 units=km Rmatrix=[ 0.114619 | 0 0.114619 | 0 0 0.114619 ] Xmatrix=[ 0.024159 | 0 0.024159 | 0 0 0.024159 ] Cmatrix=[ 0 | 0 0 | 0 0 0 ]
New LineCode.1/0_JCN_3PH_16KV_3 nphases=3 units=km Rmatrix=[ 0.001109 | 0 0.001109 | 0 0 0.001109 ] Xmatrix=[ 0.000339 | 0 0.000339 | 0 0 0.000339 ] Cmatrix=[ 0 | 0 0 | 0 0 0 ]
New LineCode.4_CU_3PH_16KV_3 nphases=3 units=km Rmatrix=[ 0.029112 | 0 0.029112 | 0 0 0.029112 ] Xmatrix=[ 0.015866 | 0 0.015866 | 0 0 0.015866 ] Cmatrix=[ 0 | 0 0 | 0 0 0 ]
New LineCode.2_CLP_1PH_16KV_1 nphases=1 units=km Rmatrix=[ 0.039847 ] Xmatrix=[ 0.008399 ] Cmatrix=[ 0 ]
New LineCode.653_ACSR_3PH_16KV_3 nphases=3 units=km Rmatrix=[ 0.00795 | 0 0.00795 | 0 0 0.00795 ] Xmatrix=[ 0.030861 | 0 0.030861 | 0 0 0.030861 ] Cmatrix=[ 0 | 0 0 | 0 0 0 ]
New LineCode.653_ACSR_3PH_16KV_4 nphases=4 units=km Rmatrix=[ 0.00795 | 0 0.00795 | 0 0 0.00795 | 0 0 0 0.00795 ] Xmatrix=[ 0.030861 | 0 0.030861 | 0 0 0.030861 | 0 0 0 0.030861 ] Cmatrix=[ 0 | 0 0 | 0 0 0 | 0 0 0 0 ]
New LineCode.1/0_ACSR_2PH_16KV_2 nphases=2 units=km Rmatrix=[ 0.059208 | 0 0.059208 ] Xmatrix=[ 0.047141 | 0 0.047141 ] Cmatrix=[ 0 | 0 0 ]
New LineCode.653_ACSR_3PH_653_ACSR_N_16KV_4 nphases=4 units=km Rmatrix=[ 0.000222 | 0 0.000222 | 0 0 0.000222 | 0 0 0 0.000222 ] Xmatrix=[ 0.000755 | 0 0.000755 | 0 0 0.000755 | 0 0 0 0.000755 ] Cmatrix=[ 0 | 0 0 | 0 0 0 | 0 0 0 0 ]
New LineCode.1/0_ACSR_2PH_1/0_ACSR_N_16KV_3_N nphases=3 units=km Rmatrix=[ 0.000888 | 0 0.000888 | 0 0 0.000888 ] Xmatrix=[ 0.000642 | 0 0.000642 | 0 0 0.000642 ] Cmatrix=[ 0 | 0 0 | 0 0 0 ]
New LineCode.4_ACSR_2PH_16KV_3_N nphases=3 units=km Rmatrix=[ 0.063026 | 0 0.063026 | 0 0 0.063026 ] Xmatrix=[ 0.023127 | 0 0.023127 | 0 0 0.023127 ] Cmatrix=[ 0 | 0 0 | 0 0 0 ]
New LineCode.6_CU_2PH_16KV_3_N nphases=3 units=km Rmatrix=[ 0.152989 | 0 0.152989 | 0 0 0.152989 ] Xmatrix=[ 0.054228 | 0 0.054228 | 0 0 0.054228 ] Cmatrix=[ 0 | 0 0 | 0 0 0 ]
New LineCode.6_CU_3PH_6_CU_N_16KV_4 nphases=4 units=km Rmatrix=[ 0.000788 | 0 0.000788 | 0 0 0.000788 | 0 0 0 0.000788 ] Xmatrix=[ 0.000255 | 0 0.000255 | 0 0 0.000255 | 0 0 0 0.000255 ] Cmatrix=[ 0 | 0 0 | 0 0 0 | 0 0 0 0 ]
New LineCode.1/0_ACSR_3PH_1/0_ACSR_N_16KV_4 nphases=4 units=km Rmatrix=[ 0.001111 | 0 0.001111 | 0 0 0.001111 | 0 0 0 0.001111 ] Xmatrix=[ 0.000803 | 0 0.000803 | 0 0 0.000803 | 0 0 0 0.000803 ] Cmatrix=[ 0 | 0 0 | 0 0 0 | 0 0 0 0 ]
New LineCode.750_CLP_3PH_16KV_3 nphases=3 units=km Rmatrix=[ 0.004368 | 0 0.004368 | 0 0 0.004368 ] Xmatrix=[ 0.005364 | 0 0.005364 | 0 0 0.005364 ] Cmatrix=[ 0 | 0 0 | 0 0 0 ]
New LineCode.2_JCN_3PH_16KV_3 nphases=3 units=km Rmatrix=[ 0.014879 | 0 0.014879 | 0 0 0.014879 ] Xmatrix=[ 0.003136 | 0 0.003136 | 0 0 0.003136 ] Cmatrix=[ 0 | 0 0 | 0 0 0 ]
New LineCode.1/0_AL_2PH_16KV_2 nphases=2 units=km Rmatrix=[ 0.039006 | 0 0.039006 ] Xmatrix=[ 0.011922 | 0 0.011922 ] Cmatrix=[ 0 | 0 0 ]
New LineCode.2_ACSR_3PH_16KV_3 nphases=3 units=km Rmatrix=[ 0.034251 | 0 0.034251 | 0 0 0.034251 ] Xmatrix=[ 0.018414 | 0 0.018414 | 0 0 0.018414 ] Cmatrix=[ 0 | 0 0 | 0 0 0 ]
New LineCode.1/0_CU_2PH_16KV_2 nphases=2 units=km Rmatrix=[ 0.021027 | 0 0.021027 ] Xmatrix=[ 0.026187 | 0 0.026187 ] Cmatrix=[ 0 | 0 0 ]
New LineCode.2/0_CU_3PH_2/0_CU_N_16KV_4 nphases=4 units=km Rmatrix=[ 0.000259 | 0 0.000259 | 0 0 0.000259 | 0 0 0 0.000259 ] Xmatrix=[ 0.000359 | 0 0.000359 | 0 0 0.000359 | 0 0 0 0.000359 ] Cmatrix=[ 0 | 0 0 | 0 0 0 | 0 0 0 0 ]
New LineCode.2_ACSR_2PH_16KV_2 nphases=2 units=km Rmatrix=[ 0.017474 | 0 0.017474 ] Xmatrix=[ 0.009394 | 0 0.009394 ] Cmatrix=[ 0 | 0 0 ]
New LineCode.2/0_CU_2PH_16KV_2 nphases=2 units=km Rmatrix=[ 1e-05 | 0 1e-05 ] Xmatrix=[ 1e-05 | 0 1e-05 ] Cmatrix=[ 0 | 0 0 ]
New LineCode.1/0_ATW_3PH_16KV_3 nphases=3 units=km Rmatrix=[ 1e-05 | 0 1e-05 | 0 0 1e-05 ] Xmatrix=[ 1e-05 | 0 1e-05 | 0 0 1e-05 ] Cmatrix=[ 0 | 0 0 | 0 0 0 ]
New LineCode.1/0_ATW_2PH_16KV_2 nphases=2 units=km Rmatrix=[ 1e-05 | 0 1e-05 ] Xmatrix=[ 1e-05 | 0 1e-05 ] Cmatrix=[ 0 | 0 0 ]
New LineCode.336_ATW_3PH_16KV_3 nphases=3 units=km Rmatrix=[ 1e-05 | 0 1e-05 | 0 0 1e-05 ] Xmatrix=[ 1e-05 | 0 1e-05 | 0 0 1e-05 ] Cmatrix=[ 0 | 0 0 | 0 0 0 ]
New LineCode.500_EPR_3PH_16KV_3 nphases=3 units=km Rmatrix=[ 1e-05 | 0 1e-05 | 0 0 1e-05 ] Xmatrix=[ 1e-05 | 0 1e-05 | 0 0 1e-05 ] Cmatrix=[ 0 | 0 0 | 0 0 0 ]
New LineCode.1/0_ATW_1PH_16KV_2 nphases=2 units=km Rmatrix=[ 1e-05 | 0 1e-05 ] Xmatrix=[ 1e-05 | 0 1e-05 ] Cmatrix=[ 0 | 0 0 ]

! Lines
New Line.4167792E$J860A-2P phases=2 Bus1=188580697.2.3 Bus2=29363971.2.3 LineCode=2_AL_2PH_16KV_2 Length=0.090274 units=km
New Line.P5649865-A$J860A-3P phases=2 Bus1=188580689.2.3 Bus2=196946728.2.3 LineCode=1/0_JCN_2PH_16KV_2 Length=0.114902 units=km
New Line.P5649865-B$P5649862-A phases=2 Bus1=196946720.2.3 Bus2=196946904.2.3 LineCode=1/0_JCN_2PH_16KV_2 Length=0.098677 units=km
New Line.B5202535-2$FD27103 phases=2 Bus1=47723397.1.2 Bus2=47721925.1.2 LineCode=2_CLP_2PH_16KV_2 Length=0.023504 units=km
New Line.ND89862081$BF27522 phases=3 Bus1=89862081.1.2.3 Bus2=47781460.1.2.3 LineCode=6_CU_3PH_16KV_3 Length=0.0789 units=km
New Line.ND47783315$4752912E phases=3 Bus1=47783315.1.2.3 Bus2=144421643.1.2.3 LineCode=336_ACSR_3PH_16KV_3 Length=0.060687 units=km
New Line.4848344EPH$183612406 phases=2 Bus1=183612348.1.2 Bus2=183612408.1.2 LineCode=1/0_JCN_2PH_16KV_2 Length=0.082427 units=km
New Line.4156401E$ND28171543 phases=3 Bus1=28171543.1.2.3 Bus2=28129342.1.2.3 LineCode=336_ACSR_3PH_16KV_3 Length=0.059012 units=km
New Line.885084E$BF03661 phases=2 Bus1=215181306.2.3 Bus2=28155116.2.3 LineCode=4_ACSR_2PH_16KV_2 Length=0.073083 units=km
New Line.ND28171543$BF27406 phases=2 Bus1=28171543.1.2 Bus2=28170438.1.2 LineCode=6_CU_2PH_16KV_2 Length=0.005419 units=km
New Line.1323378E$1323261E phases=2 Bus1=47755079.2.3 Bus2=47720949.2.3 LineCode=6_CU_2PH_16KV_2 Length=0.104999 units=km
New Line.4513628E$ND47782442 phases=2 Bus1=47720812.2.3 Bus2=47782442.2.3 LineCode=6_CU_2PH_16KV_2 Length=0.051172 units=km
New Line.BF27365$ND47782666 phases=2 Bus1=47781477.1.2 Bus2=47782666.1.2 LineCode=6_CU_2PH_16KV_2 Length=0.036027 units=km
New Line.885084E$4662604E phases=2 Bus1=28155116.2.3 Bus2=28155141.2.3 LineCode=4_ACSR_2PH_16KV_2 Length=0.043959 units=km
New Line.ND28172242$4156401E phases=3 Bus1=28129342.1.2.3 Bus2=28172242.1.2.3 LineCode=336_ACSR_3PH_16KV_3 Length=0.048616 units=km
New Line.ND47782442$4450581E phases=2 Bus1=47782442.2.3 Bus2=47720762.2.3 LineCode=6_CU_2PH_16KV_2 Length=0.038537 units=km
New Line.ND47782442$43SMT phases=2 Bus1=47782442.2.3 Bus2=47720837.2.3 LineCode=6_CU_2PH_16KV_2 Length=0.074744 units=km
New Line.4752199E$ND47782666 phases=2 Bus1=47782666.1.2 Bus2=47721153.1.2 LineCode=6_CU_2PH_16KV_2 Length=0.064076 units=km
New Line.ND47782666$4521299E phases=2 Bus1=47782666.1.2 Bus2=47721228.1.2 LineCode=6_CU_2PH_16KV_2 Length=0.05823 units=km
New Line.1323261E$ND47783130 phases=2 Bus1=47720949.2.3 Bus2=47783130.2.3 LineCode=6_CU_2PH_16KV_2 Length=0.059038 units=km
New Line.PS2125$ND47823083 phases=3 Bus1=199420850.1.2.3 Bus2=47823083.1.2.3 LineCode=336_ACSR_3PH_16KV_3 Length=0.048876 units=km
New Line.43SMT$44SMT phases=2 Bus1=47720837.2.3 Bus2=206378654.2.3 LineCode=4_ACSR_2PH_16KV_2 Length=0.101771 units=km
New Line.4663614E$ND28172242 phases=3 Bus1=28172242.1.2.3 Bus2=28153576.1.2.3 LineCode=336_ACSR_3PH_16KV_3 Length=0.059592 units=km
New Line.ND28172242$775866E phases=3 Bus1=28172242.1.2.3 Bus2=28168768.1.2.3 LineCode=336_ACSR_3PH_16KV_3 Length=0.050192 units=km
New Line.ND28172242$BF27080 phases=2 Bus1=28172242.1.3 Bus2=28170457.1.3 LineCode=6_CU_2PH_16KV_2 Length=0.034881 units=km
New Line.BF27406$ND28219028 phases=2 Bus1=28170439.1.2 Bus2=28219028.1.2 LineCode=6_CU_2PH_16KV_2 Length=0.007186 units=km
New Line.ND47783130$1363825E phases=2 Bus1=47783130.2.3 Bus2=47721078.2.3 LineCode=4_ACSR_2PH_16KV_2 Length=0.035862 units=km
New Line.4752199E$52SMT phases=2 Bus1=47721153.1.2 Bus2=47721178.1.2 LineCode=6_CU_2PH_16KV_2 Length=0.032878 units=km
New Line.4521299E$4082311E phases=2 Bus1=47721228.1.2 Bus2=47721253.1.2 LineCode=6_CU_2PH_16KV_2 Length=0.075677 units=km
New Line.ND47783130$4575460E phases=2 Bus1=47783130.2.3 Bus2=47723467.2.3 LineCode=6_CU_2PH_16KV_2 Length=0.029276 units=km
New Line.ND47823083$BF27366 phases=2 Bus1=47823083.1.2 Bus2=47781340.1.2 LineCode=4_ACSR_2PH_16KV_2 Length=0.007367 units=km
New Line.ND47823083$ND47783276 phases=3 Bus1=47823083.1.2.3 Bus2=47783276.1.2.3 LineCode=336_ACSR_3PH_16KV_3 Length=0.032311 units=km
New Line.700460E$4663614E phases=3 Bus1=28153576.1.2.3 Bus2=28153605.1.2.3 LineCode=336_ACSR_3PH_16KV_3 Length=0.10203 units=km
New Line.ND28219028$700433E phases=2 Bus1=28219028.1.2 Bus2=28154897.1.2 LineCode=6_CU_2PH_16KV_2 Length=0.07927 units=km
New Line.ND28219028$4538828E phases=2 Bus1=28219028.1.2 Bus2=28154922.1.2 LineCode=6_CU_2PH_16KV_2 Length=0.049564 units=km
New Line.PS0306$775866E phases=3 Bus1=28168768.1.2.3 Bus2=28170940.1.2.3 LineCode=336_ACSR_3PH_16KV_3 Length=0.048917 units=km
New Line.4167792E$ND29397610 phases=2 Bus1=29363970.2.3 Bus2=29397610.2.3 LineCode=4_ACSR_2PH_16KV_2 Length=0.037215 units=km
New Line.44SMT$4141775E phases=2 Bus1=206378654.2.3 Bus2=47720787.2.3 LineCode=4_ACSR_2PH_16KV_2 Length=0.036114 units=km
New Line.4575460E$1429146E phases=2 Bus1=47723467.2.3 Bus2=47720974.2.3 LineCode=6_CU_2PH_16KV_2 Length=0.055695 units=km
New Line.4082311E$671831E phases=2 Bus1=47721253.1.2 Bus2=47721103.1.2 LineCode=4_ACSR_2PH_16KV_2 Length=0.070572 units=km
New Line.52SMT$1949150E phases=2 Bus1=47721178.1.2 Bus2=47721203.1.2 LineCode=6_CU_2PH_16KV_2 Length=0.096056 units=km
New Line.ND47783276$FD27103 phases=3 Bus1=47783276.0.1.2 Bus2=47723396.0.1.2 LineCode=336_ACSR_2PH_336_ACSR_N_16KV_3_N Length=0.032311 units=km
New Line.ND47783276$ND47822697 phases=3 Bus1=47783276.1.2.3 Bus2=47822697.1.2.3 LineCode=336_ACSR_3PH_16KV_3 Length=0.066205 units=km
New Line.1949150E$ND183612369 phases=2 Bus1=47721203.1.2 Bus2=183612369.1.2 LineCode=6_CU_2PH_16KV_2 Length=0.02373 units=km
New Line.1429146E$421647E phases=2 Bus1=47720974.2.3 Bus2=192999218.2.3 LineCode=6_CU_2PH_16KV_2 Length=0.181227 units=km
New Line.700461E$700460E phases=3 Bus1=28153605.1.2.3 Bus2=28153634.1.2.3 LineCode=336_ACSR_3PH_16KV_3 Length=0.055361 units=km
New Line.BF27080$4141778E phases=2 Bus1=28170458.1.3 Bus2=28154697.1.3 LineCode=4_ACSR_2PH_16KV_2 Length=0.037802 units=km
New Line.700433E$4646528E phases=2 Bus1=28154897.1.2 Bus2=28154872.1.2 LineCode=6_CU_2PH_16KV_2 Length=0.046728 units=km
New Line.4538828E$700455E phases=2 Bus1=28154922.1.2 Bus2=28154947.1.2 LineCode=6_CU_2PH_16KV_2 Length=0.104655 units=km
New Line.ND29397610$1900891E phases=2 Bus1=29397610.2.3 Bus2=29364125.2.3 LineCode=4_ACSR_2PH_16KV_2 Length=0.047158 units=km
New Line.ND29397610$4167781E phases=2 Bus1=29397610.2.3 Bus2=29364150.2.3 LineCode=4_ACSR_2PH_16KV_2 Length=0.002496 units=km
New Line.ND47822697$X5807E phases=3 Bus1=47822697.1.2.3 Bus2=47722100.1.2.3 LineCode=336_ACSR_3PH_16KV_3 Length=0.05533 units=km
New Line.BF27366$4723677E phases=2 Bus1=47781341.1.2 Bus2=47780683.1.2 LineCode=4_ACSR_2PH_16KV_2 Length=0.055478 units=km
New Line.ND47822697$BF27074 phases=2 Bus1=47822697.1.2 Bus2=47781324.1.2 LineCode=6_CU_2PH_16KV_2 Length=0.00651 units=km
New Line.ND183612369$4848344EPH phases=2 Bus1=183612369.1.2 Bus2=183612347.1.2 LineCode=4_CU_2PH_16KV_2 Length=0.001637 units=km
New Line.4141778E$1530508E phases=2 Bus1=28154697.1.3 Bus2=28129241.1.3 LineCode=6_CU_2PH_16KV_2 Length=0.063073 units=km
New Line.4650074E$700461E phases=3 Bus1=28153634.1.2.3 Bus2=28153663.1.2.3 LineCode=336_ACSR_3PH_16KV_3 Length=0.019155 units=km
New Line.1900891E$1900882E phases=2 Bus1=29364125.2.3 Bus2=29364100.2.3 LineCode=4_ACSR_2PH_16KV_2 Length=0.04462 units=km
New Line.4167781E$4167777E phases=2 Bus1=29364150.2.3 Bus2=29364175.2.3 LineCode=4_ACSR_2PH_16KV_2 Length=0.043756 units=km
New Line.421647E$421648E phases=2 Bus1=192999218.2.3 Bus2=47720999.2.3 LineCode=6_CU_2PH_16KV_2 Length=0.024831 units=km
New Line.ND183612369$2078362E phases=2 Bus1=183612369.1.2 Bus2=47721128.1.2 LineCode=6_CU_2PH_16KV_2 Length=0.027768 units=km
New Line.4723677E$26SMT phases=2 Bus1=47780683.1.2 Bus2=47721382.1.2 LineCode=4_ACSR_2PH_16KV_2 Length=0.039461 units=km
New Line.X5807E$ND89862081 phases=3 Bus1=47722100.1.2.3 Bus2=89862081.1.2.3 LineCode=336_ACSR_3PH_16KV_3 Length=0.16886 units=km
New Line.1530508E$1624939E phases=2 Bus1=28129241.1.3 Bus2=28154722.1.3 LineCode=6_CU_2PH_16KV_2 Length=0.061334 units=km
New Line.4578867E$ND28170897 phases=3 Bus1=28153821.1.2.3 Bus2=28170897.1.2.3 LineCode=1/0_ACSR_3PH_16KV_3 Length=0.147537 units=km
New Line.ND28216255$4650074E phases=3 Bus1=28153663.1.2.3 Bus2=28216255.1.2.3 LineCode=336_ACSR_3PH_16KV_3 Length=0.077527 units=km
New Line.1900882E$4156708E phases=2 Bus1=29364100.2.3 Bus2=29364075.2.3 LineCode=4_ACSR_2PH_16KV_2 Length=0.049346 units=km
New Line.4167777E$4167776E phases=2 Bus1=29364175.2.3 Bus2=29364200.2.3 LineCode=4_ACSR_2PH_16KV_2 Length=0.031623 units=km
New Line.421648E$861594E phases=2 Bus1=47720999.2.3 Bus2=47721024.2.3 LineCode=4_ACSR_2PH_16KV_2 Length=0.109196 units=km
New Line.26SMT$ND47782554 phases=2 Bus1=47721382.1.2 Bus2=47782554.1.2 LineCode=4_ACSR_2PH_16KV_2 Length=0.062028 units=km
New Line.ND89862081$ND47783315 phases=3 Bus1=89862081.1.2.3 Bus2=47783315.1.2.3 LineCode=336_ACSR_3PH_16KV_3 Length=0.1382 units=km
New Line.4735854E$ND28216255 phases=3 Bus1=28216255.1.2.3 Bus2=28153692.1.2.3 LineCode=336_ACSR_3PH_16KV_3 Length=0.118464 units=km
New Line.1624939E$326347E phases=2 Bus1=28154722.1.3 Bus2=28154747.1.3 LineCode=6_CU_2PH_16KV_2 Length=0.037854 units=km
New Line.ND28216255$FD908 phases=3 Bus1=28216255.1.2.3 Bus2=28155411.1.2.3 LineCode=4_ACSR_3PH_16KV_3 Length=0.073031 units=km
New Line.ND28170897$ND28217032 phases=3 Bus1=28170897.1.2.3 Bus2=28217032.1.2.3 LineCode=1/0_ACSR_3PH_16KV_3 Length=0.094075 units=km
New Line.4167776E$4167775E phases=2 Bus1=29364200.2.3 Bus2=29364225.2.3 LineCode=4_ACSR_2PH_16KV_2 Length=0.033303 units=km
New Line.4156708E$4337655E phases=2 Bus1=29364075.2.3 Bus2=29366009.2.3 LineCode=4_ACSR_2PH_16KV_2 Length=0.047152 units=km
New Line.ND47782554$27SMT phases=2 Bus1=47782554.1.2 Bus2=47721357.1.2 LineCode=4_ACSR_2PH_16KV_2 Length=0.066097 units=km
New Line.ND47782554$685231E phases=2 Bus1=47782554.1.2 Bus2=47721407.1.2 LineCode=6_CU_2PH_16KV_2 Length=0.124202 units=km
New Line.902727E$ND215216934 phases=2 Bus1=215216934.1.2 Bus2=47721582.1.2 LineCode=6_CU_2PH_16KV_2 Length=0.124845 units=km
New Line.ND47783315$861734E phases=3 Bus1=47783315.1.2.3 Bus2=47780735.1.2.3 LineCode=1/0_ACSR_3PH_16KV_3 Length=0.043717 units=km
New Line.ND47783315$BF27073 phases=2 Bus1=47783315.1.2 Bus2=47781308.1.2 LineCode=6_CU_2PH_16KV_2 Length=0.060687 units=km
New Line.183612406$P5644864-1 phases=2 Bus1=183612409.1.2 Bus2=183612310.1.2 LineCode=UNK_UNK_2PH_16KV_2 Length=1e-05 units=km
New Line.ND90556758$ND47782411 phases=3 Bus1=47782411.1.2.3 Bus2=90556758.1.2.3 LineCode=2/0_CU_3PH_16KV_3 Length=0.019603 units=km
New Line.ND219769749$ND90556758 phases=3 Bus1=90556758.1.2.3 Bus2=219769703.1.2.3 LineCode=2/0_CU_3PH_16KV_3 Length=0.009796 units=km
New Line.P5378749-A$P5378745-B phases=2 Bus1=47719982.2.3 Bus2=47720050.2.3 LineCode=2_CLP_2PH_16KV_2 Length=0.115179 units=km
New Line.GS0550-2$V5405716 phases=3 Bus1=47754555.1.2.3 Bus2=47781610.1.2.3 LineCode=2_CLP_3PH_16KV_3 Length=0.009875 units=km
New Line.1722753E$GS0550-1 phases=3 Bus1=47754547.1.2.3 Bus2=47754673.1.2.3 LineCode=1000_CLP_3PH_16KV_3 Length=0.159252 units=km
New Line.4188448EP$V5405716 phases=3 Bus1=47781610.1.2.3 Bus2=47754871.1.2.3 LineCode=2_CLP_3PH_16KV_3 Length=0.174721 units=km
New Line.884882E$266277712 phases=3 Bus1=47723438.1.2.3 Bus2=266277714.1.2.3 LineCode=1/0_CLP_3PH_16KV_3 Length=0.021576 units=km
New Line.P5378749-B$P5378748-A phases=2 Bus1=47720059.2.3 Bus2=47720127.2.3 LineCode=2_CLP_2PH_16KV_2 Length=0.05162 units=km
New Line.ND219769751$4209172E phases=3 Bus1=219769685.1.2.3 Bus2=47754038.1.2.3 LineCode=336_ACSR_3PH_16KV_3 Length=0.038935 units=km
New Line.B5202536-2$B5202535-1 phases=2 Bus1=47721916.1.2 Bus2=47721997.1.2 LineCode=2_CLP_2PH_16KV_2 Length=0.175479 units=km
New Line.4752912E$ND99022606 phases=3 Bus1=144421643.1.2.3 Bus2=99022606.1.2.3 LineCode=336_ACSR_3PH_16KV_3 Length=0.031118 units=km
New Line.4007336E$P5358304-1 phases=3 Bus1=47753860.1.2.3 Bus2=47701524.1.2.3 LineCode=1/0_AL_3PH_16KV_3 Length=0.015813 units=km
New Line.4209172E$4209171E phases=3 Bus1=47754038.1.2.3 Bus2=47755727.1.2.3 LineCode=336_ACSR_3PH_16KV_3 Length=0.032706 units=km
New Line.ND28216389$4767243E phases=3 Bus1=28216389.1.2.3 Bus2=227102149.1.2.3 LineCode=1/0_ACSR_3PH_16KV_3 Length=0.08619 units=km
New Line.FD908$ND28155450 phases=3 Bus1=28155412.1.2.3 Bus2=28155428.1.2.3 LineCode=2_AL_3PH_16KV_3 Length=0.102463 units=km
New Line.ND99022606$ND47782822 phases=3 Bus1=99022606.1.2.3 Bus2=47782822.1.2.3 LineCode=336_ACSR_3PH_16KV_3 Length=0.030385 units=km
New Line.ND47782822$4209166E phases=3 Bus1=47782822.1.2.3 Bus2=47722433.1.2.3 LineCode=336_ACSR_3PH_16KV_3 Length=0.037075 units=km
New Line.950E$301126111 phases=3 Bus1=301126027.1.2.3 Bus2=301126113.1.2.3 LineCode=1/0_JCN_3PH_16KV_3 Length=0.094438 units=km
New Line.4007337E$P5333110-1 phases=3 Bus1=47753847.1.2.3 Bus2=47701476.1.2.3 LineCode=1/0_AL_3PH_16KV_3 Length=0.028103 units=km
New Line.4209166E$ND191079354 phases=3 Bus1=47722433.1.2.3 Bus2=191079354.1.2.3 LineCode=336_ACSR_3PH_16KV_3 Length=0.072446 units=km
New Line.B5202536-1$B5202537-2 phases=2 Bus1=47721988.1.2 Bus2=47721853.1.2 LineCode=2_CLP_2PH_16KV_2 Length=0.097766 units=km
New Line.ND191079354$963545EPH phases=3 Bus1=191079354.1.2.3 Bus2=191079332.1.2.3 LineCode=6_CU_3PH_16KV_3 Length=0.002339 units=km
New Line.300171E$BF04488 phases=3 Bus1=135817834.1.2.3 Bus2=28153365.1.2.3 LineCode=6_CU_3PH_16KV_3 Length=0.035814 units=km
New Line.ND191079354$ND297569073 phases=3 Bus1=191079354.1.2.3 Bus2=297569073.1.2.3 LineCode=336_ACSR_3PH_16KV_3 Length=0.040046 units=km
New Line.301126111$P5663502-1 phases=3 Bus1=301126114.1.2.3 Bus2=301126067.1.2.3 LineCode=1/0_JCN_3PH_16KV_3 Length=0.001567 units=km
New Line.266277712$P5405729-1 phases=3 Bus1=266277715.1.2.3 Bus2=47720576.1.2.3 LineCode=1/0_CLP_3PH_16KV_3 Length=0.002032 units=km
New Line.4209171E$X5816E phases=3 Bus1=47755727.1.2.3 Bus2=47720922.1.2.3 LineCode=336_ACSR_3PH_16KV_3 Length=0.080895 units=km
New Line.P5378748-B$ND47719965 phases=2 Bus1=47720136.2.3 Bus2=47719943.2.3 LineCode=2_CLP_2PH_16KV_2 Length=0.086226 units=km
New Line.311E$PME9679-1 phases=3 Bus1=47780771.1.2.3 Bus2=138925115.1.2.3 LineCode=1/0_JCN_3PH_16KV_3 Length=0.103549 units=km
New Line.ND47782729$ND47822363 phases=3 Bus1=47782729.1.2.3 Bus2=47822363.1.2.3 LineCode=1/0_ACSR_3PH_16KV_3 Length=0.046882 units=km
New Line.ND47822363$4563103E phases=3 Bus1=47822363.1.2.3 Bus2=47723348.1.2.3 LineCode=1/0_ACSR_3PH_16KV_3 Length=0.064054 units=km
New Line.4563103E$ND47822820 phases=3 Bus1=47723348.1.2.3 Bus2=47822820.1.2.3 LineCode=1/0_ACSR_3PH_16KV_3 Length=0.032033 units=km
New Line.ND47822820$ND47782858 phases=3 Bus1=47822820.1.2.3 Bus2=47782858.1.2.3 LineCode=1/0_ACSR_3PH_16KV_3 Length=0.040366 units=km
New Line.ND47782858$4435372E phases=3 Bus1=47782858.1.2.3 Bus2=47780631.1.2.3 LineCode=1/0_ACSR_3PH_16KV_3 Length=0.032786 units=km
New Line.4435372E$ND47782781 phases=3 Bus1=47780631.1.2.3 Bus2=47782781.1.2.3 LineCode=1/0_ACSR_3PH_16KV_3 Length=0.036009 units=km
New Line.533E$J978-4P phases=3 Bus1=84081985.1.2.3 Bus2=105552398.1.2.3 LineCode=2_CLP_3PH_16KV_3 Length=0.066887 units=km
New Line.ND47782781$ND219769871 phases=3 Bus1=47782781.1.2.3 Bus2=219769807.1.2.3 LineCode=1/0_ACSR_3PH_16KV_3 Length=0.046696 units=km
New Line.4209311E$P5405527-1 phases=3 Bus1=47723317.1.2.3 Bus2=47723052.1.2.3 LineCode=2_CLP_3PH_16KV_3 Length=0.023554 units=km
New Line.ND164999377$902683EPH phases=3 Bus1=164999377.1.2.3 Bus2=164999355.1.2.3 LineCode=4_CU_3PH_16KV_3 Length=0.038752 units=km
New Line.PH223$ND96536116 phases=2 Bus1=47723304.1.3 Bus2=96536116.1.3 LineCode=2_CLP_2PH_16KV_2 Length=0.037284 units=km
New Line.ND96536116$P5378759-2 phases=2 Bus1=96536116.1.3 Bus2=47723231.1.3 LineCode=2_CLP_2PH_16KV_2 Length=0.008369 units=km
New Line.138925171$PME9679-1 phases=3 Bus1=138925116.1.2.3 Bus2=138925174.1.2.3 LineCode=1/0_JCN_3PH_16KV_3 Length=0.004942 units=km
New Line.P5007920-1$PHX80 phases=2 Bus1=47753730.2.3 Bus2=47701900.2.3 LineCode=2_CLP_2PH_16KV_2 Length=0.06663 units=km
New Line.ND96536116$B5572038-1 phases=1 Bus1=96536116.3 Bus2=96536044.3 LineCode=2_CLP_1PH_16KV_1 Length=0.009055 units=km
New Line.J978-3P$P5555592-1 phases=3 Bus1=105552390.1.2.3 Bus2=105552527.1.2.3 LineCode=2_CLP_3PH_16KV_3 Length=0.059507 units=km
New Line.902683EPH$P5632673-1 phases=3 Bus1=164999356.1.2.3 Bus2=164999318.1.2.3 LineCode=1/0_JCN_3PH_16KV_3 Length=0.0191 units=km
New Line.326293E$BF03664 phases=3 Bus1=215181353.1.2.3 Bus2=47720637.1.2.3 LineCode=4_ACSR_3PH_16KV_3 Length=0.008394 units=km
New Line.ND90556758$BF27170 phases=3 Bus1=90556758.1.2.3 Bus2=110347652.1.2.3 LineCode=6_CU_3PH_16KV_3 Length=0.003159 units=km
New Line.326293E$326294E phases=3 Bus1=47720637.1.2.3 Bus2=136577941.1.2.3 LineCode=4_ACSR_3PH_16KV_3 Length=0.056139 units=km
New Line.ND201169865$RCS0030 phases=3 Bus1=201169865.1.2.3 Bus2=28170985.1.2.3 LineCode=336_ACSR_3PH_16KV_3 Length=0.024242 units=km
New Line.BF27405$4566990E phases=2 Bus1=47781373.1.2 Bus2=84742880.1.2 LineCode=6_CU_2PH_16KV_2 Length=0.073875 units=km
New Line.769288E$4566990E phases=2 Bus1=84742880.1.2 Bus2=47720712.1.2 LineCode=6_CU_2PH_16KV_2 Length=0.088709 units=km
New Line.326294E$ND47782609 phases=3 Bus1=136577941.1.2.3 Bus2=47782609.1.2.3 LineCode=4_ACSR_3PH_16KV_3 Length=0.055701 units=km
New Line.ND110347633$BF27170 phases=3 Bus1=110347653.1.2.3 Bus2=110347633.1.2.3 LineCode=6_CU_3PH_16KV_3 Length=0.073768 units=km
New Line.ND28171263$RCS0030 phases=3 Bus1=28170984.1.2.3 Bus2=28171263.1.2.3 LineCode=336_ACSR_3PH_16KV_3 Length=0.008146 units=km
New Line.ND47782609$1513242E phases=3 Bus1=47782609.1.2.3 Bus2=47720564.1.2.3 LineCode=1/0_ACSR_3PH_16KV_3 Length=0.070033 units=km
New Line.769288E$769285E phases=2 Bus1=47720712.1.2 Bus2=47720737.1.2 LineCode=4_ACSR_2PH_16KV_2 Length=0.10092 units=km
New Line.ND47782609$884882E phases=3 Bus1=47782609.1.2.3 Bus2=47723437.1.2.3 LineCode=1/0_ACSR_3PH_16KV_3 Length=0.05972 units=km
New Line.ND110347633$1936122E phases=3 Bus1=110347633.1.2.3 Bus2=29366034.1.2.3 LineCode=6_CU_3PH_16KV_3 Length=0.072477 units=km
New Line.4188448EP$BF03145 phases=3 Bus1=47754870.1.2.3 Bus2=218777014.1.2.3 LineCode=1/0_ACSR_3PH_16KV_3 Length=0.004303 units=km
New Line.1722753E$1722755E phases=3 Bus1=47754672.1.2.3 Bus2=47753836.1.2.3 LineCode=653_ACSR_3PH_16KV_3 Length=0.074884 units=km
New Line.1722755E$ND47823159 phases=3 Bus1=47753836.1.2.3 Bus2=47823159.1.2.3 LineCode=653_ACSR_3PH_16KV_3 Length=0.078207 units=km
New Line.ND47823159$ND245225700 phases=3 Bus1=47823159.1.2.3 Bus2=245225700.1.2.3 LineCode=653_ACSR_3PH_16KV_3 Length=0.047532 units=km
New Line.BF03145$4007335E phases=3 Bus1=218777015.1.2.3 Bus2=47701610.1.2.3 LineCode=1/0_ACSR_3PH_16KV_3 Length=0.019892 units=km
New Line.X10473E$ND47823159 phases=3 Bus1=47823159.1.2.3 Bus2=47780894.1.2.3 LineCode=4_ACSR_3PH_16KV_3 Length=0.004705 units=km
New Line.4007335E$2335644E phases=3 Bus1=47701610.1.2.3 Bus2=47701585.1.2.3 LineCode=1/0_ACSR_3PH_16KV_3 Length=0.02946 units=km
New Line.ND245225700$PS0283 phases=4 Bus1=245225700.0.1.2.3 Bus2=47780866.0.1.2.3 LineCode=653_ACSR_3PH_16KV_4 Length=0.006228 units=km
New Line.X10473E$569113E phases=3 Bus1=47780895.1.2.3 Bus2=234340954.1.2.3 LineCode=336_ACSR_3PH_16KV_3 Length=0.195515 units=km
New Line.2335644E$ND47782837 phases=3 Bus1=47701585.1.2.3 Bus2=47782837.1.2.3 LineCode=1/0_ACSR_3PH_16KV_3 Length=0.044008 units=km
New Line.569113E$4141500E phases=3 Bus1=234340954.1.2.3 Bus2=47701788.1.2.3 LineCode=336_ACSR_3PH_16KV_3 Length=0.188406 units=km
New Line.ND47782837$4007336E phases=3 Bus1=47782837.1.2.3 Bus2=47753859.1.2.3 LineCode=1/0_ACSR_3PH_16KV_3 Length=0.033874 units=km
New Line.ND47782837$4007337E1 phases=3 Bus1=47782837.1.2.3 Bus2=47753889.1.2.3 LineCode=1/0_ACSR_3PH_16KV_3 Length=0.033874 units=km
New Line.ND47782494$PS0283 phases=3 Bus1=47780865.1.2.3 Bus2=47782494.1.2.3 LineCode=653_ACSR_3PH_16KV_3 Length=0.134638 units=km
New Line.ND47782494$ND47753807 phases=3 Bus1=47782494.1.2.3 Bus2=47753807.1.2.3 LineCode=653_ACSR_3PH_16KV_3 Length=0.063071 units=km
New Line.ND47782494$BF27404 phases=2 Bus1=47782494.2.3 Bus2=47781418.2.3 LineCode=1/0_ACSR_2PH_16KV_2 Length=0.001921 units=km
New Line.902585E$902584E phases=2 Bus1=47722749.1.3 Bus2=47722724.1.3 LineCode=6_CU_2PH_16KV_2 Length=0.064611 units=km
New Line.4141997E$ND47822718 phases=3 Bus1=47722826.1.2.3 Bus2=47822718.1.2.3 LineCode=2/0_CU_3PH_16KV_3 Length=0.044615 units=km
New Line.ND47822718$PS0169 phases=3 Bus1=47822718.1.2.3 Bus2=28169236.1.2.3 LineCode=2/0_CU_3PH_16KV_3 Length=0.038898 units=km
New Line.ND47822718$274170E phases=3 Bus1=47822718.1.2.3 Bus2=47722855.1.2.3 LineCode=2/0_CU_3PH_16KV_3 Length=0.061874 units=km
New Line.902590E$4160799E phases=2 Bus1=47722674.1.3 Bus2=47754203.1.3 LineCode=4_CU_2PH_16KV_2 Length=0.059126 units=km
New Line.902584E$ND47783006 phases=2 Bus1=47722724.1.3 Bus2=47783006.1.3 LineCode=6_CU_2PH_16KV_2 Length=0.032211 units=km
New Line.ND47783006$902581E phases=2 Bus1=47783006.1.3 Bus2=140961281.1.3 LineCode=6_CU_2PH_16KV_2 Length=0.064927 units=km
New Line.4160799E$2288596E phases=2 Bus1=47754203.1.3 Bus2=47722599.1.3 LineCode=6_CU_2PH_16KV_2 Length=0.173164 units=km
New Line.ND47783006$902582E phases=2 Bus1=47783006.1.3 Bus2=47780852.1.3 LineCode=4_ACSR_2PH_16KV_2 Length=0.031716 units=km
New Line.274170E$ND47822295 phases=3 Bus1=47722855.1.2.3 Bus2=47822295.1.2.3 LineCode=2/0_CU_3PH_16KV_3 Length=0.104661 units=km
New Line.ND110347633$4579627E phases=3 Bus1=110347633.1.2.3 Bus2=86871960.1.2.3 LineCode=6_CU_3PH_16KV_3 Length=0.048656 units=km
New Line.1624926E$1624925E phases=3 Bus1=28155218.1.2.3 Bus2=28155247.1.2.3 LineCode=336_ACSR_3PH_16KV_3 Length=0.040693 units=km
New Line.1936122E$X4046E phases=3 Bus1=29366034.1.2.3 Bus2=29364300.1.2.3 LineCode=6_CU_3PH_16KV_3 Length=0.062433 units=km
New Line.4579627E$47CWT phases=3 Bus1=86871960.1.2.3 Bus2=29364325.1.2.3 LineCode=6_CU_3PH_16KV_3 Length=0.075536 units=km
New Line.27SMT$4518361E phases=2 Bus1=47721357.1.2 Bus2=106442898.1.2 LineCode=4_ACSR_2PH_16KV_2 Length=0.063427 units=km
New Line.ND28217032$BF02779 phases=2 Bus1=28217032.1.3 Bus2=28170492.1.3 LineCode=4_CU_2PH_16KV_2 Length=0.028098 units=km
New Line.861734E$PS0011 phases=3 Bus1=47780735.1.2.3 Bus2=28171175.1.2.3 LineCode=1/0_ACSR_3PH_16KV_3 Length=0.054162 units=km
New Line.ND28217032$ND28172823 phases=3 Bus1=28217032.1.2.3 Bus2=28172823.1.2.3 LineCode=1/0_ACSR_3PH_16KV_3 Length=0.208685 units=km
New Line.ND28216389$4735854E phases=3 Bus1=28153692.1.2.3 Bus2=28216389.1.2.3 LineCode=336_ACSR_3PH_16KV_3 Length=0.002018 units=km