! OpenDSS script generated from multiconductor network
Clear

New Circuit.mc_network basekv=12.0 pu=1.000000 angle=0.00 frequency=60.0 phases=3 Mvasc3=143993 Mvasc1=47997.6
~ bus1=-8888882190572.1.2.3

! Line codes
New LineCode.1/0_CLP_3PH_12KV_3 nphases=3 units=km Rmatrix=[ 0.077468 | 0 0.077468 | 0 0 0.077468 ] Xmatrix=[ 0.023678 | 0 0.023678 | 0 0 0.023678 ] Cmatrix=[ 0 | 0 0 | 0 0 0 ]
New LineCode.1/0_JCN_3PH_12KV_3 nphases=3 units=km Rmatrix=[ 0.019687 | 0 0.019687 | 0 0 0.019687 ] Xmatrix=[ 0.006017 | 0 0.006017 | 0 0 0.006017 ] Cmatrix=[ 0 | 0 0 | 0 0 0 ]
New LineCode.336_ACSR_3PH_336_ACSR_N_12KV_4 nphases=4 units=km Rmatrix=[ 0.012639 | 0 0.012639 | 0 0 0.012639 | 0 0 0 0.012639 ] Xmatrix=[ 0.025205 | 0 0.025205 | 0 0 0.025205 | 0 0 0 0.025205 ] Cmatrix=[ 0 | 0 0 | 0 0 0 | 0 0 0 0 ]
New LineCode.1/0_CLP_1PH_12KV_1 nphases=1 units=km Rmatrix=[ 0.006193 ] Xmatrix=[ 0.001893 ] Cmatrix=[ 0 ]
New LineCode.2_CLP_1PH_12KV_1 nphases=1 units=km Rmatrix=[ 0.001317 ] Xmatrix=[ 0.000278 ] Cmatrix=[ 0 ]
New LineCode.350_CLP_3PH_12KV_3 nphases=3 units=km Rmatrix=[ 0.05023 | 0 0.05023 | 0 0 0.05023 ] Xmatrix=[ 0.038164 | 0 0.038164 | 0 0 0.038164 ] Cmatrix=[ 0 | 0 0 | 0 0 0 ]
New LineCode.1/0_AL_2PH_12KV_2 nphases=2 units=km Rmatrix=[ 0.041043 | 0 0.041043 ] Xmatrix=[ 0.012545 | 0 0.012545 ] Cmatrix=[ 0 | 0 0 ]
New LineCode.1/0_CLP_2PH_12KV_2 nphases=2 units=km Rmatrix=[ 0.006997 | 0 0.006997 ] Xmatrix=[ 0.002138 | 0 0.002138 ] Cmatrix=[ 0 | 0 0 ]
New LineCode.2_CLP_3PH_12KV_3 nphases=3 units=km Rmatrix=[ 0.521185 | 0 0.521185 | 0 0 0.521185 ] Xmatrix=[ 0.109856 | 0 0.109856 | 0 0 0.109856 ] Cmatrix=[ 0 | 0 0 | 0 0 0 ]
New LineCode.2_AL_2PH_12KV_2 nphases=2 units=km Rmatrix=[ 0.119223 | 0 0.119223 ] Xmatrix=[ 0.02513 | 0 0.02513 ] Cmatrix=[ 0 | 0 0 ]
New LineCode.2_CLP_2PH_12KV_2 nphases=2 units=km Rmatrix=[ 0.026012 | 0 0.026012 ] Xmatrix=[ 0.005483 | 0 0.005483 ] Cmatrix=[ 0 | 0 0 ]
New LineCode.1/0_ACSR_3PH_12KV_3 nphases=3 units=km Rmatrix=[ 0.023078 | 0 0.023078 | 0 0 0.023078 ] Xmatrix=[ 0.018375 | 0 0.018375 | 0 0 0.018375 ] Cmatrix=[ 0 | 0 0 | 0 0 0 ]
New LineCode.2_JCN_2PH_12KV_2 nphases=2 units=km Rmatrix=[ 0.105823 | 0 0.105823 ] Xmatrix=[ 0.022305 | 0 0.022305 ] Cmatrix=[ 0 | 0 0 ]
New LineCode.2_CIC_3PH_12KV_3 nphases=3 units=km Rmatrix=[ 0.006833 | 0 0.006833 | 0 0 0.006833 ] Xmatrix=[ 0.00144 | 0 0.00144 | 0 0 0.00144 ] Cmatrix=[ 0 | 0 0 | 0 0 0 ]
New LineCode.1000_JCN_3PH_12KV_3 nphases=3 units=km Rmatrix=[ 0.044786 | 0 0.044786 | 0 0 0.044786 ] Xmatrix=[ 0.067793 | 0 0.067793 | 0 0 0.067793 ] Cmatrix=[ 0 | 0 0 | 0 0 0 ]
New LineCode.1/0_AL_1PH_12KV_1 nphases=1 units=km Rmatrix=[ 0.010296 ] Xmatrix=[ 0.003147 ] Cmatrix=[ 0 ]
New LineCode.350_AL_3PH_12KV_3 nphases=3 units=km Rmatrix=[ 0.017921 | 0 0.017921 | 0 0 0.017921 ] Xmatrix=[ 0.013616 | 0 0.013616 | 0 0 0.013616 ] Cmatrix=[ 0 | 0 0 | 0 0 0 ]
New LineCode.350_AL_2PH_12KV_2 nphases=2 units=km Rmatrix=[ 0.022543 | 0 0.022543 ] Xmatrix=[ 0.017128 | 0 0.017128 ] Cmatrix=[ 0 | 0 0 ]
New LineCode.2_CIC_2PH_12KV_2 nphases=2 units=km Rmatrix=[ 0.013299 | 0 0.013299 ] Xmatrix=[ 0.002803 | 0 0.002803 ] Cmatrix=[ 0 | 0 0 ]
New LineCode.1/0_JCN_2PH_12KV_2 nphases=2 units=km Rmatrix=[ 0.070781 | 0 0.070781 ] Xmatrix=[ 0.021634 | 0 0.021634 ] Cmatrix=[ 0 | 0 0 ]
New LineCode.2_JCN_3PH_12KV_3 nphases=3 units=km Rmatrix=[ 0.003338 | 0 0.003338 | 0 0 0.003338 ] Xmatrix=[ 0.000704 | 0 0.000704 | 0 0 0.000704 ] Cmatrix=[ 0 | 0 0 | 0 0 0 ]
New LineCode.350_JCN_3PH_12KV_3 nphases=3 units=km Rmatrix=[ 0.037717 | 0 0.037717 | 0 0 0.037717 ] Xmatrix=[ 0.028657 | 0 0.028657 | 0 0 0.028657 ] Cmatrix=[ 0 | 0 0 | 0 0 0 ]
New LineCode.350_CLP_2PH_12KV_2 nphases=2 units=km Rmatrix=[ 0.001275 | 0 0.001275 ] Xmatrix=[ 0.000969 | 0 0.000969 ] Cmatrix=[ 0 | 0 0 ]
New LineCode.4_ACSR_2PH_12KV_2 nphases=2 units=km Rmatrix=[ 0.076136 | 0 0.076136 ] Xmatrix=[ 0.027937 | 0 0.027937 ] Cmatrix=[ 0 | 0 0 ]
New LineCode.4_ACSR_3PH_12KV_3 nphases=3 units=km Rmatrix=[ 0.137629 | 0 0.137629 | 0 0 0.137629 ] Xmatrix=[ 0.050502 | 0 0.050502 | 0 0 0.050502 ] Cmatrix=[ 0 | 0 0 | 0 0 0 ]
New LineCode.4/0_ACSR_3PH_4/0_ACSR_N_12KV_4 nphases=4 units=km Rmatrix=[ 0.038541 | 0 0.038541 | 0 0 0.038541 | 0 0 0 0.038541 ] Xmatrix=[ 0.049063 | 0 0.049063 | 0 0 0.049063 | 0 0 0 0.049063 ] Cmatrix=[ 0 | 0 0 | 0 0 0 | 0 0 0 0 ]
New LineCode.336_ACSR_3PH_12KV_3 nphases=3 units=km Rmatrix=[ 0.015905 | 0 0.015905 | 0 0 0.015905 ] Xmatrix=[ 0.035617 | 0 0.035617 | 0 0 0.035617 ] Cmatrix=[ 0 | 0 0 | 0 0 0 ]
New LineCode.4/0_ACSR_3PH_12KV_3 nphases=3 units=km Rmatrix=[ 0.000744 | 0 0.000744 | 0 0 0.000744 ] Xmatrix=[ 0.001051 | 0 0.001051 | 0 0 0.001051 ] Cmatrix=[ 0 | 0 0 | 0 0 0 ]
New LineCode.4_ACSR_2PH_4_ACSR_N_12KV_3_N nphases=3 units=km Rmatrix=[ 0.00848 | 0 0.00848 | 0 0 0.00848 ] Xmatrix=[ 0.002852 | 0 0.002852 | 0 0 0.002852 ] Cmatrix=[ 0 | 0 0 | 0 0 0 ]
New LineCode.1/0_ACSR_2PH_12KV_2 nphases=2 units=km Rmatrix=[ 0.036461 | 0 0.036461 ] Xmatrix=[ 0.02903 | 0 0.02903 ] Cmatrix=[ 0 | 0 0 ]
New LineCode.4_ACSR_2PH_4_ACSR_N_12KV_2 nphases=2 units=km Rmatrix=[ 0.00848 | 0 0.00848 ] Xmatrix=[ 0.002852 | 0 0.002852 ] Cmatrix=[ 0 | 0 0 ]
New LineCode.2_ACSR_2PH_12KV_2 nphases=2 units=km Rmatrix=[ 0.098612 | 0 0.098612 ] Xmatrix=[ 0.053015 | 0 0.053015 ] Cmatrix=[ 0 | 0 0 ]
New LineCode.1/0_ACSR_2PH_1/0_ACSR_N_12KV_3_N nphases=3 units=km Rmatrix=[ 0.001202 | 0 0.001202 | 0 0 0.001202 ] Xmatrix=[ 0.000869 | 0 0.000869 | 0 0 0.000869 ] Cmatrix=[ 0 | 0 0 | 0 0 0 ]
New LineCode.4_CU_2PH_12KV_2 nphases=2 units=km Rmatrix=[ 0.047751 | 0 0.047751 ] Xmatrix=[ 0.026024 | 0 0.026024 ] Cmatrix=[ 0 | 0 0 ]
New LineCode.4_CU_3PH_12KV_3 nphases=3 units=km Rmatrix=[ 0.171794 | 0 0.171794 | 0 0 0.171794 ] Xmatrix=[ 0.093628 | 0 0.093628 | 0 0 0.093628 ] Cmatrix=[ 0 | 0 0 | 0 0 0 ]
New LineCode.336_ACSR_2PH_12KV_2 nphases=2 units=km Rmatrix=[ 0.001557 | 0 0.001557 ] Xmatrix=[ 0.003488 | 0 0.003488 ] Cmatrix=[ 0 | 0 0 ]
New LineCode.2_ACSR_3PH_12KV_3 nphases=3 units=km Rmatrix=[ 0.258956 | 0 0.258956 | 0 0 0.258956 ] Xmatrix=[ 0.139217 | 0 0.139217 | 0 0 0.139217 ] Cmatrix=[ 0 | 0 0 | 0 0 0 ]
New LineCode.4/0_AL_3PH_12KV_3 nphases=3 units=km Rmatrix=[ 1e-05 | 0 1e-05 | 0 0 1e-05 ] Xmatrix=[ 1e-05 | 0 1e-05 | 0 0 1e-05 ] Cmatrix=[ 0 | 0 0 | 0 0 0 ]
New LineCode.2_CU_2PH_12KV_2 nphases=2 units=km Rmatrix=[ 1e-05 | 0 1e-05 ] Xmatrix=[ 1e-05 | 0 1e-05 ] Cmatrix=[ 0 | 0 0 ]
New LineCode.__3PH_12KV_3 nphases=3 units=km Rmatrix=[ 1e-05 | 0 1e-05 | 0 0 1e-05 ] Xmatrix=[ 1e-05 | 0 1e-05 | 0 0 1e-05 ] Cmatrix=[ 0 | 0 0 | 0 0 0 ]

! Lines
New Line.FD60166$103726311 phases=3 Bus1=103726156.1.2.3 Bus2=103726313.1.2.3 LineCode=1/0_CLP_3PH_12KV_3 Length=0.009144 units=km
New Line.103726311$103726338 phases=3 Bus1=103726314.1.2.3 Bus2=103726341.1.2.3 LineCode=1/0_CLP_3PH_12KV_3 Length=0.023262 units=km
New Line.103726338$103726363 phases=3 Bus1=103726340.1.2.3 Bus2=103726365.1.2.3 LineCode=1/0_JCN_3PH_12KV_3 Length=0.139925 units=km
New Line.4175594E$BS0560-1 phases=3 Bus1=21803281.1.2.3 Bus2=220062218.1.2.3 LineCode=1/0_JCN_3PH_12KV_3 Length=0.050936 units=km
New Line.103726363$P5590921-1 phases=3 Bus1=103726366.1.2.3 Bus2=103726179.1.2.3 LineCode=1/0_CLP_3PH_12KV_3 Length=0.003987 units=km
New Line.160241094$BS0560-1 phases=3 Bus1=220062217.1.2.3 Bus2=160241096.1.2.3 LineCode=1/0_CLP_3PH_12KV_3 Length=0.118 units=km
New Line.FD2297$P5420060-1 phases=3 Bus1=21913984.1.2.3 Bus2=21914000.1.2.3 LineCode=1/0_JCN_3PH_12KV_3 Length=0.032883 units=km
New Line.ND105974115$1778623EP1 phases=4 Bus1=105974115.0.1.2.3 Bus2=105974093.0.1.2.3 LineCode=336_ACSR_3PH_336_ACSR_N_12KV_4 Length=0.104251 units=km
New Line.ND165672263$160241094 phases=3 Bus1=160241097.1.2.3 Bus2=165672263.1.2.3 LineCode=1/0_CLP_3PH_12KV_3 Length=0.007739 units=km
New Line.160241082$ND165672263 phases=3 Bus1=165672263.1.2.3 Bus2=160241085.1.2.3 LineCode=1/0_CLP_3PH_12KV_3 Length=0.008744 units=km
New Line.165672212$ND165672263 phases=3 Bus1=165672263.1.2.3 Bus2=165672215.1.2.3 LineCode=1/0_JCN_3PH_12KV_3 Length=0.020735 units=km
New Line.PME0813-4$1778623EP1 phases=3 Bus1=105974094.1.2.3 Bus2=105974150.1.2.3 LineCode=1/0_JCN_3PH_12KV_3 Length=0.102467 units=km
New Line.165672224$165672212 phases=3 Bus1=165672214.1.2.3 Bus2=165672226.1.2.3 LineCode=1/0_JCN_3PH_12KV_3 Length=0.06552 units=km
New Line.ND21947822$160241082 phases=3 Bus1=160241084.1.2.3 Bus2=21947822.1.2.3 LineCode=1/0_CLP_3PH_12KV_3 Length=0.28076 units=km
New Line.ND21947822$160241145 phases=1 Bus1=21947822.2 Bus2=160241147.2 LineCode=1/0_CLP_1PH_12KV_1 Length=0.041013 units=km
New Line.164355204$ND21947822 phases=1 Bus1=21947822.1 Bus2=164355206.1 LineCode=2_CLP_1PH_12KV_1 Length=0.121744 units=km
New Line.110546865$PME0813-2 phases=1 Bus1=105974160.2 Bus2=110546867.2 LineCode=2_CLP_1PH_12KV_1 Length=0.164641 units=km
New Line.P5470204-1$165672224 phases=3 Bus1=165672227.1.2.3 Bus2=165672177.1.2.3 LineCode=1/0_JCN_3PH_12KV_3 Length=0.001273 units=km
New Line.PME0813-1$ND110546313 phases=1 Bus1=105974178.1 Bus2=110546313.1 LineCode=2_CLP_1PH_12KV_1 Length=0.030023 units=km
New Line.164355204$PMS0559-1 phases=1 Bus1=164355207.1 Bus2=21803471.1 LineCode=2_CLP_1PH_12KV_1 Length=0.001089 units=km
New Line.PFC0769-1$160241145 phases=1 Bus1=160241148.2 Bus2=21914802.2 LineCode=1/0_CLP_1PH_12KV_1 Length=0.003335 units=km
New Line.ND110546313$105974434 phases=1 Bus1=110546313.1 Bus2=105974436.1 LineCode=2_CLP_1PH_12KV_1 Length=0.048571 units=km
New Line.110546865$P5595594-1 phases=1 Bus1=110546868.2 Bus2=110546378.2 LineCode=2_CLP_1PH_12KV_1 Length=0.001259 units=km
New Line.ND110546313$110546813 phases=1 Bus1=110546313.1 Bus2=110546815.1 LineCode=2_CLP_1PH_12KV_1 Length=0.149975 units=km
New Line.164355192$PMS0559-1 phases=1 Bus1=21803470.1 Bus2=164355195.1 LineCode=2_CLP_1PH_12KV_1 Length=0.003979 units=km
New Line.21947505$PFC0769-1 phases=1 Bus1=21914803.2 Bus2=21947508.2 LineCode=1/0_CLP_1PH_12KV_1 Length=0.001412 units=km
New Line.105974434$P5588122-1 phases=1 Bus1=105974437.1 Bus2=105974335.1 LineCode=2_CLP_1PH_12KV_1 Length=0.003221 units=km
New Line.110546813$P5595591-1 phases=1 Bus1=110546816.1 Bus2=110546102.1 LineCode=2_CLP_1PH_12KV_1 Length=0.001501 units=km
New Line.110546924$P5595594-2 phases=1 Bus1=110546387.2 Bus2=110546927.2 LineCode=2_CLP_1PH_12KV_1 Length=0.001633 units=km
New Line.21947505$21914928 phases=1 Bus1=21947507.2 Bus2=21914930.2 LineCode=1/0_CLP_1PH_12KV_1 Length=0.139248 units=km
New Line.ND21949599$164355192 phases=1 Bus1=164355194.1 Bus2=21949599.1 LineCode=2_CLP_1PH_12KV_1 Length=0.003979 units=km
New Line.P5419101-2$ND21949599 phases=1 Bus1=21949599.1 Bus2=21803529.1 LineCode=2_CLP_1PH_12KV_1 Length=0.047664 units=km
New Line.21914846$ND21949599 phases=1 Bus1=21949599.1 Bus2=21914848.1 LineCode=2_CLP_1PH_12KV_1 Length=0.215323 units=km
New Line.ND21949599$ND288713523 phases=1 Bus1=21949599.1 Bus2=288713523.1 LineCode=2_CLP_1PH_12KV_1 Length=0.15501 units=km
New Line.P5588122-2$105974409 phases=1 Bus1=105974344.1 Bus2=105974412.1 LineCode=2_CLP_1PH_12KV_1 Length=0.003699 units=km
New Line.P5595591-2$110546840 phases=1 Bus1=110546111.1 Bus2=110546843.1 LineCode=2_CLP_1PH_12KV_1 Length=0.001352 units=km
New Line.21914928$P5523319-2 phases=1 Bus1=21914931.2 Bus2=21914953.2 LineCode=1/0_CLP_1PH_12KV_1 Length=0.004238 units=km
New Line.110546924$243772630 phases=1 Bus1=110546926.2 Bus2=243772632.2 LineCode=2_CLP_1PH_12KV_1 Length=0.05967 units=km
New Line.ND288713523$ND288713478 phases=1 Bus1=288713523.1 Bus2=288713478.1 LineCode=2_CLP_1PH_12KV_1 Length=0.12396 units=km
New Line.ND288713501$ND288713523 phases=1 Bus1=288713523.1 Bus2=288713483.1 LineCode=2_CLP_1PH_12KV_1 Length=0.014689 units=km
New Line.21914846$P5523320-1 phases=1 Bus1=21914849.1 Bus2=21914862.1 LineCode=2_CLP_1PH_12KV_1 Length=0.001805 units=km
New Line.ND288713478$288713566 phases=1 Bus1=288713478.1 Bus2=288713568.1 LineCode=2_CLP_1PH_12KV_1 Length=0.10382 units=km
New Line.105974409$105974537 phases=1 Bus1=105974411.1 Bus2=105974539.1 LineCode=2_CLP_1PH_12KV_1 Length=0.083786 units=km
New Line.110546840$110546959 phases=1 Bus1=110546842.1 Bus2=110546961.1 LineCode=2_CLP_1PH_12KV_1 Length=0.133223 units=km
New Line.P5419102-2$P5419101-1 phases=1 Bus1=21803520.1 Bus2=21803601.1 LineCode=2_CLP_1PH_12KV_1 Length=0.161584 units=km
New Line.243772630$ND243772623 phases=1 Bus1=243772633.2 Bus2=243772623.2 LineCode=2_CLP_1PH_12KV_1 Length=0.008057 units=km
New Line.ND243772593$ND243772623 phases=1 Bus1=243772623.2 Bus2=243772575.2 LineCode=2_CLP_1PH_12KV_1 Length=0.010806 units=km
New Line.ND243772623$243772657 phases=1 Bus1=243772623.2 Bus2=243772660.2 LineCode=2_CLP_1PH_12KV_1 Length=0.140782 units=km
New Line.ND288713557$288713566 phases=1 Bus1=288713569.1 Bus2=288713539.1 LineCode=2_CLP_1PH_12KV_1 Length=0.162595 units=km
New Line.105974537$P5588123-1 phases=1 Bus1=105974540.1 Bus2=105974465.1 LineCode=2_CLP_1PH_12KV_1 Length=0.004684 units=km
New Line.110546959$P5595592-1 phases=1 Bus1=110546962.1 Bus2=110546170.1 LineCode=2_CLP_1PH_12KV_1 Length=0.000569 units=km
New Line.243772657$ND243772600 phases=1 Bus1=243772659.2 Bus2=243772600.2 LineCode=2_CLP_1PH_12KV_1 Length=0.016743 units=km
New Line.ND110546781$ND243772600 phases=1 Bus1=243772600.2 Bus2=110546781.2 LineCode=2_CLP_1PH_12KV_1 Length=0.162623 units=km
New Line.P5595592-2$110546984 phases=1 Bus1=110546179.1 Bus2=110546987.1 LineCode=2_CLP_1PH_12KV_1 Length=0.001972 units=km
New Line.110547098$ND110546781 phases=1 Bus1=110546781.2 Bus2=110547100.2 LineCode=2_CLP_1PH_12KV_1 Length=0.155124 units=km
New Line.ND110546781$110547123 phases=1 Bus1=110546781.2 Bus2=110547125.2 LineCode=2_CLP_1PH_12KV_1 Length=0.042605 units=km
New Line.110547098$P5595599-1 phases=1 Bus1=110547101.2 Bus2=110546552.2 LineCode=2_CLP_1PH_12KV_1 Length=0.00079 units=km
New Line.110547123$P5595597-2 phases=1 Bus1=110547126.2 Bus2=110546644.2 LineCode=2_CLP_1PH_12KV_1 Length=0.001182 units=km
New Line.110546984$110547009 phases=1 Bus1=110546986.1 Bus2=110547011.1 LineCode=2_CLP_1PH_12KV_1 Length=0.131686 units=km
New Line.110547009$P5595593-1 phases=1 Bus1=110547012.1 Bus2=110546238.1 LineCode=2_CLP_1PH_12KV_1 Length=0.00277 units=km
New Line.P5595597-1$110547148 phases=1 Bus1=110546635.2 Bus2=110547151.2 LineCode=2_CLP_1PH_12KV_1 Length=0.001662 units=km
New Line.GS0562-1$4177498E phases=3 Bus1=21836219.1.2.3 Bus2=21837133.1.2.3 LineCode=350_CLP_3PH_12KV_3 Length=0.043256 units=km
New Line.4101616E$PMS0610-1 phases=2 Bus1=21836274.1.2 Bus2=21836290.1.2 LineCode=1/0_AL_2PH_12KV_2 Length=0.109409 units=km
New Line.110547148$110547173 phases=1 Bus1=110547150.2 Bus2=110547175.2 LineCode=2_CLP_1PH_12KV_1 Length=0.166687 units=km
New Line.FD60075$P5376258-1 phases=1 Bus1=21836666.2 Bus2=21836754.2 LineCode=1/0_CLP_1PH_12KV_1 Length=0.133679 units=km
New Line.PMS0610-1$ND269694322 phases=2 Bus1=21836291.1.2 Bus2=269694322.1.2 LineCode=1/0_AL_2PH_12KV_2 Length=0.084252 units=km
New Line.110547173$P5595598-2 phases=1 Bus1=110547176.2 Bus2=110546712.2 LineCode=2_CLP_1PH_12KV_1 Length=0.001492 units=km
New Line.ND269694322$269694372 phases=2 Bus1=269694322.1.2 Bus2=269694374.1.2 LineCode=1/0_AL_2PH_12KV_2 Length=0.011097 units=km
New Line.FD60121$BS0609-T phases=2 Bus1=21836337.1.3 Bus2=199956208.1.3 LineCode=1/0_CLP_2PH_12KV_2 Length=0.129237 units=km
New Line.GS0562-3$ND21949707 phases=3 Bus1=21837141.1.2.3 Bus2=21949707.1.2.3 LineCode=2_CLP_3PH_12KV_3 Length=0.216077 units=km
New Line.P5376258-2$244896301 phases=1 Bus1=21836763.2 Bus2=244896303.2 LineCode=1/0_CLP_1PH_12KV_1 Length=0.116323 units=km
New Line.FD60122$150188542 phases=2 Bus1=21836823.2.3 Bus2=150188544.2.3 LineCode=2_AL_2PH_12KV_2 Length=0.064926 units=km
New Line.ND21949707$BS0619-1 phases=2 Bus1=21949707.2.3 Bus2=21837366.2.3 LineCode=2_CLP_2PH_12KV_2 Length=0.014234 units=km
New Line.ND21949707$ND21948477 phases=3 Bus1=21949707.1.2.3 Bus2=21948477.1.2.3 LineCode=2_CLP_3PH_12KV_3 Length=0.164695 units=km
New Line.GS0562-4$ND21966560 phases=3 Bus1=21837149.1.2.3 Bus2=21966560.1.2.3 LineCode=350_CLP_3PH_12KV_3 Length=0.551673 units=km
New Line.ND269694365$269694372 phases=2 Bus1=269694375.1.2 Bus2=269694365.1.2 LineCode=1/0_AL_2PH_12KV_2 Length=0.075383 units=km
New Line.ND21948477$P5338038-1 phases=3 Bus1=21948477.1.2.3 Bus2=21837560.1.2.3 LineCode=2_CLP_3PH_12KV_3 Length=0.042255 units=km
New Line.ND21966560$P5590913-1 phases=3 Bus1=21966560.1.2.3 Bus2=21837824.1.2.3 LineCode=2_CLP_3PH_12KV_3 Length=0.226963 units=km
New Line.ND21966560$240487009 phases=3 Bus1=21966560.1.2.3 Bus2=240487011.1.2.3 LineCode=350_CLP_3PH_12KV_3 Length=0.137059 units=km
New Line.ND244896263$244896301 phases=1 Bus1=244896304.2 Bus2=244896263.2 LineCode=1/0_CLP_1PH_12KV_1 Length=0.011232 units=km
New Line.ND269694345$ND269694365 phases=2 Bus1=269694365.1.2 Bus2=269694327.1.2 LineCode=1/0_AL_2PH_12KV_2 Length=0.00949 units=km
New Line.269694413$ND269694365 phases=2 Bus1=269694365.1.2 Bus2=269694416.1.2 LineCode=1/0_AL_2PH_12KV_2 Length=0.007108 units=km
New Line.150188542$PME0611-1 phases=2 Bus1=150188545.2.3 Bus2=150188488.2.3 LineCode=2_AL_2PH_12KV_2 Length=0.00544 units=km
New Line.B5183598-2$BS0609-R phases=2 Bus1=199956200.1.3 Bus2=21836365.1.3 LineCode=1/0_CLP_2PH_12KV_2 Length=0.084203 units=km
New Line.B5183987-1$BS0609-L phases=2 Bus1=199956217.1.3 Bus2=21836428.1.3 LineCode=1/0_CLP_2PH_12KV_2 Length=0.147007 units=km
New Line.BS0619-1$ND21947657 phases=2 Bus1=21837367.2.3 Bus2=21947657.2.3 LineCode=2_CLP_2PH_12KV_2 Length=0.061552 units=km
New Line.ND244896263$ND244896244 phases=1 Bus1=244896263.2 Bus2=244896226.2 LineCode=1/0_CLP_1PH_12KV_1 Length=0.011731 units=km
New Line.ND244896263$244896342 phases=1 Bus1=244896263.2 Bus2=244896345.2 LineCode=1/0_CLP_1PH_12KV_1 Length=0.008816 units=km
New Line.P5340135-2$ND21947657 phases=1 Bus1=21947657.2 Bus2=21837425.2 LineCode=2_CLP_1PH_12KV_1 Length=0.026198 units=km
New Line.ND21947657$ND21949377 phases=1 Bus1=21947657.3 Bus2=21949377.3 LineCode=2_CLP_1PH_12KV_1 Length=0.133397 units=km
New Line.240487009$PME0563-1 phases=3 Bus1=240487012.1.2.3 Bus2=240895167.1.2.3 LineCode=350_CLP_3PH_12KV_3 Length=0.002609 units=km
New Line.PME0611-1$150188554 phases=2 Bus1=150188489.2.3 Bus2=150188557.2.3 LineCode=2_AL_2PH_12KV_2 Length=0.004304 units=km
New Line.ND21949377$ND21948197 phases=1 Bus1=21949377.3 Bus2=21948197.3 LineCode=2_CLP_1PH_12KV_1 Length=0.103638 units=km
New Line.244896342$ND244896221 phases=1 Bus1=244896380.2 Bus2=244896221.2 LineCode=1/0_CLP_1PH_12KV_1 Length=0.074066 units=km
New Line.ND21949377$ND306650252 phases=1 Bus1=21949377.3 Bus2=306650234.3 LineCode=2_CLP_1PH_12KV_1 Length=0.142862 units=km
New Line.B5183987-2$B5183988-1 phases=2 Bus1=21836437.1.3 Bus2=21899329.1.3 LineCode=1/0_CLP_2PH_12KV_2 Length=0.015235 units=km
New Line.ND244896221$244896394 phases=1 Bus1=244896221.2 Bus2=244896396.2 LineCode=2_CLP_1PH_12KV_1 Length=0.105614 units=km
New Line.ND21948197$306650121 phases=1 Bus1=21948197.3 Bus2=306650123.3 LineCode=2_CLP_1PH_12KV_1 Length=0.245065 units=km
New Line.ND21948197$ND306650181 phases=1 Bus1=21948197.3 Bus2=306650163.3 LineCode=2_CLP_1PH_12KV_1 Length=0.14252 units=km
New Line.B5183906-2$150188554 phases=2 Bus1=150188556.2.3 Bus2=21836901.2.3 LineCode=2_AL_2PH_12KV_2 Length=0.078859 units=km
New Line.P5340138-2$P5340135-1 phases=1 Bus1=21837416.2 Bus2=21837497.2 LineCode=2_CLP_1PH_12KV_1 Length=0.227574 units=km
New Line.ND21948710$PS1012 phases=3 Bus1=21948710.1.2.3 Bus2=235926989.1.2.3 LineCode=1/0_ACSR_3PH_12KV_3 Length=0.019566 units=km
New Line.240487035$PME0563-4 phases=3 Bus1=240895149.1.2.3 Bus2=240487038.1.2.3 LineCode=2_CLP_3PH_12KV_3 Length=0.076134 units=km
New Line.240487062$PME0563-3 phases=3 Bus1=240895140.1.2.3 Bus2=240487065.1.2.3 LineCode=1/0_CLP_3PH_12KV_3 Length=0.060078 units=km
New Line.240487087$PME0563-2 phases=3 Bus1=240895158.1.2.3 Bus2=240487090.1.2.3 LineCode=350_CLP_3PH_12KV_3 Length=0.191028 units=km
New Line.ND244896292$244896394 phases=1 Bus1=244896397.2 Bus2=244896274.2 LineCode=2_CLP_1PH_12KV_1 Length=0.01794 units=km
New Line.ND306650112$306650121 phases=1 Bus1=306650124.3 Bus2=306650094.3 LineCode=2_CLP_1PH_12KV_1 Length=0.094189 units=km
New Line.B5183988-2$ND139034743 phases=2 Bus1=21899338.1.3 Bus2=139034743.1.3 LineCode=1/0_CLP_2PH_12KV_2 Length=0.105338 units=km
New Line.ND21949650$240487035 phases=3 Bus1=240487037.1.2.3 Bus2=21949650.1.2.3 LineCode=2_CLP_3PH_12KV_3 Length=0.156651 units=km
New Line.ND139034743$139034762 phases=2 Bus1=139034743.1.3 Bus2=139034764.1.3 LineCode=2_JCN_2PH_12KV_2 Length=0.032866 units=km
New Line.ND21949650$169326392 phases=3 Bus1=21949650.1.2.3 Bus2=169326394.1.2.3 LineCode=2_CLP_3PH_12KV_3 Length=0.045244 units=km
New Line.185566897$240487062 phases=3 Bus1=240487064.1.2.3 Bus2=185566899.1.2.3 LineCode=1/0_CLP_3PH_12KV_3 Length=0.113482 units=km
New Line.ND139034743$211012849 phases=2 Bus1=139034743.1.3 Bus2=211012851.1.3 LineCode=1/0_CLP_2PH_12KV_2 Length=0.108075 units=km
New Line.B5184007-2$B5183906-1 phases=2 Bus1=21836892.2.3 Bus2=21836973.2.3 LineCode=2_AL_2PH_12KV_2 Length=0.080075 units=km
New Line.P5340138-1$P5340139-2 phases=1 Bus1=21837488.2 Bus2=21837303.2 LineCode=2_CLP_1PH_12KV_1 Length=0.23804 units=km
New Line.ND21949650$P5419870-A phases=3 Bus1=21949650.1.2.3 Bus2=21897958.1.2.3 LineCode=2_CLP_3PH_12KV_3 Length=0.142924 units=km
New Line.ND21949728$240487087 phases=3 Bus1=240487089.1.2.3 Bus2=21949728.1.2.3 LineCode=350_CLP_3PH_12KV_3 Length=0.166636 units=km
New Line.ND21949728$P5376876-1 phases=3 Bus1=21949728.1.2.3 Bus2=21837899.1.2.3 LineCode=1/0_CLP_3PH_12KV_3 Length=0.063385 units=km
New Line.ND21949728$P5419872-1 phases=3 Bus1=21949728.1.2.3 Bus2=21837947.1.2.3 LineCode=1/0_CLP_3PH_12KV_3 Length=0.240602 units=km
New Line.ND21949728$244594891 phases=3 Bus1=21949728.1.2.3 Bus2=244594893.1.2.3 LineCode=2_CIC_3PH_12KV_3 Length=0.372926 units=km
New Line.P5590305-1$139034762 phases=2 Bus1=139034765.1.3 Bus2=139034665.1.3 LineCode=2_JCN_2PH_12KV_2 Length=0.001267 units=km
New Line.211012849$P5577609-1 phases=2 Bus1=211012852.1.3 Bus2=21836500.1.3 LineCode=1/0_CLP_2PH_12KV_2 Length=0.001254 units=km
New Line.185566897$ND21837891 phases=3 Bus1=185566900.1.2.3 Bus2=21837869.1.2.3 LineCode=1/0_CLP_3PH_12KV_3 Length=0.005138 units=km
New Line.169326392$P5419104-1 phases=3 Bus1=169326395.1.2.3 Bus2=21912760.1.2.3 LineCode=2_CLP_3PH_12KV_3 Length=0.002917 units=km
New Line.B5184008-1$B5184007-1 phases=2 Bus1=21836964.2.3 Bus2=21837036.2.3 LineCode=2_AL_2PH_12KV_2 Length=0.10041 units=km
New Line.P5419870-B$P5419871-1 phases=3 Bus1=21897949.1.2.3 Bus2=21898026.1.2.3 LineCode=2_CLP_3PH_12KV_3 Length=0.092605 units=km
New Line.244594891$PME0614-4 phases=3 Bus1=244594894.1.2.3 Bus2=21898117.1.2.3 LineCode=2_CIC_3PH_12KV_3 Length=0.003406 units=km
New Line.ND243109942$ND235927531 phases=3 Bus1=235927531.1.2.3 Bus2=243109942.1.2.3 LineCode=1/0_ACSR_3PH_12KV_3 Length=0.083815 units=km
New Line.211012861$P5577609-2 phases=2 Bus1=21836509.1.3 Bus2=211012864.1.3 LineCode=1/0_CLP_2PH_12KV_2 Length=0.000833 units=km
New Line.ND235927404$ND243109942 phases=3 Bus1=243109942.1.2.3 Bus2=235927404.1.2.3 LineCode=1/0_ACSR_3PH_12KV_3 Length=0.089631 units=km
New Line.PME0813-3$ND110546811 phases=1 Bus1=105974169.3 Bus2=-777777105974169.3 LineCode=2_CLP_1PH_12KV_1 Length=0.122065 units=km
New Line.ND21948477$ND172752701 phases=3 Bus1=21948477.1.2.3 Bus2=-77777721948477.1.2.3 LineCode=2_CLP_3PH_12KV_3 Length=0.176458 units=km
New Line.ND269694430$269694413 phases=2 Bus1=269694415.1.2 Bus2=-777777269694415.1.2 LineCode=1/0_AL_2PH_12KV_2 Length=0.057631 units=km
New Line.PME0614-1$244594915 phases=2 Bus1=21898135.1.3 Bus2=244594918.1.3 LineCode=2_CLP_2PH_12KV_2 Length=0.130607 units=km
New Line.B5184015-1$211012861 phases=2 Bus1=211012863.1.3 Bus2=21836572.1.3 LineCode=1/0_CLP_2PH_12KV_2 Length=0.015233 units=km
New Line.RCS0614-3$244594865 phases=3 Bus1=21898108.1.2.3 Bus2=244594868.1.2.3 LineCode=2_CLP_3PH_12KV_3 Length=0.024069 units=km
New Line.244594942$PME0614-2 phases=2 Bus1=21898126.1.3 Bus2=244594945.1.3 LineCode=2_CLP_2PH_12KV_2 Length=0.06086 units=km
New Line.244594915$169021839 phases=2 Bus1=244594917.1.3 Bus2=169021841.1.3 LineCode=2_CLP_2PH_12KV_2 Length=0.145264 units=km
New Line.4175845E$GS0948-3 phases=3 Bus1=21912449.1.2.3 Bus2=186437093.1.2.3 LineCode=1000_JCN_3PH_12KV_3 Length=0.130061 units=km
New Line.ND21949111$244594942 phases=2 Bus1=244594944.1.3 Bus2=21949111.1.3 LineCode=2_CLP_2PH_12KV_2 Length=0.18738 units=km
New Line.244594865$ND242506958 phases=3 Bus1=244594867.1.2.3 Bus2=242506958.1.2.3 LineCode=2_CLP_3PH_12KV_3 Length=0.030799 units=km
New Line.ND242506958$4029001E phases=3 Bus1=242506958.1.2.3 Bus2=21837992.1.2.3 LineCode=2_CLP_3PH_12KV_3 Length=0.155386 units=km
New Line.169021839$PME0574-1 phases=2 Bus1=169021842.1.3 Bus2=21913109.1.3 LineCode=2_CLP_2PH_12KV_2 Length=0.008446 units=km
New Line.ND21949111$P5340269-1 phases=2 Bus1=21949111.1.3 Bus2=21915185.1.3 LineCode=2_CLP_2PH_12KV_2 Length=0.011999 units=km
New Line.ND21949111$P5340270-1 phases=2 Bus1=21949111.1.3 Bus2=21915233.1.3 LineCode=2_CLP_2PH_12KV_2 Length=0.034093 units=km
New Line.ND242506958$P5340414 phases=3 Bus1=242506958.1.2.3 Bus2=242506952.1.2.3 LineCode=2_CLP_3PH_12KV_3 Length=0.000537 units=km
New Line.169021851$PME0574-1 phases=2 Bus1=21913108.1.3 Bus2=169021854.1.3 LineCode=2_CLP_2PH_12KV_2 Length=0.003085 units=km
New Line.FD60123$ND21950562 phases=2 Bus1=21896608.1.3 Bus2=21950562.1.3 LineCode=1/0_AL_2PH_12KV_2 Length=0.007825 units=km
New Line.ND21950562$BS0439-1 phases=2 Bus1=21950562.1.3 Bus2=21875636.1.3 LineCode=1/0_AL_2PH_12KV_2 Length=0.030213 units=km
New Line.ND21950562$BS1067-1 phases=2 Bus1=21950562.1.3 Bus2=21875682.1.3 LineCode=1/0_AL_2PH_12KV_2 Length=0.035513 units=km
New Line.4415122E$GS0948-2 phases=3 Bus1=186437085.1.2.3 Bus2=21912479.1.2.3 LineCode=1000_JCN_3PH_12KV_3 Length=0.091046 units=km
New Line.FD60124$ND21964081 phases=2 Bus1=21896595.2.3 Bus2=21964081.2.3 LineCode=2_AL_2PH_12KV_2 Length=0.137078 units=km
New Line.P5043563-A$ND21964081 phases=2 Bus1=21964081.2.3 Bus2=21877360.2.3 LineCode=2_AL_2PH_12KV_2 Length=0.16144 units=km
New Line.ND21965098$169021851 phases=2 Bus1=169021853.1.3 Bus2=21965098.1.3 LineCode=2_CLP_2PH_12KV_2 Length=0.012552 units=km
New Line.ND21964081$242495796 phases=2 Bus1=21964081.2.3 Bus2=242495798.2.3 LineCode=2_AL_2PH_12KV_2 Length=0.030397 units=km
New Line.P5340420-2$ND21965098 phases=2 Bus1=21965098.1.3 Bus2=21838034.1.3 LineCode=2_CLP_2PH_12KV_2 Length=0.098527 units=km
New Line.BS1067-1$P5420052-1 phases=2 Bus1=21875683.1.3 Bus2=21875948.1.3 LineCode=1/0_AL_2PH_12KV_2 Length=0.102525 units=km
New Line.P5340417-1$ND21965098 phases=2 Bus1=21965098.1.3 Bus2=21912283.1.3 LineCode=2_CLP_2PH_12KV_2 Length=0.044852 units=km
New Line.BS0439-1$ND21964456 phases=2 Bus1=21875635.1.3 Bus2=21964456.1.3 LineCode=1/0_AL_2PH_12KV_2 Length=0.082631 units=km
New Line.B5043572-2$ND21964456 phases=1 Bus1=21964456.3 Bus2=21875741.3 LineCode=1/0_AL_1PH_12KV_1 Length=0.014666 units=km
New Line.242495796$P5043550-A phases=2 Bus1=242495799.2.3 Bus2=21877510.2.3 LineCode=2_AL_2PH_12KV_2 Length=0.005197 units=km
New Line.ND21964456$292911595 phases=2 Bus1=21964456.1.3 Bus2=292911597.1.3 LineCode=1/0_AL_2PH_12KV_2 Length=0.05803 units=km
New Line.P5043563-B$185177352 phases=2 Bus1=21877351.2.3 Bus2=185177354.2.3 LineCode=2_AL_2PH_12KV_2 Length=0.13334 units=km
New Line.4740372E$188371557 phases=3 Bus1=188371590.1.2.3 Bus2=188371559.1.2.3 LineCode=1/0_JCN_3PH_12KV_3 Length=0.021728 units=km
New Line.P5420053-1$P5420052-2 phases=2 Bus1=21875957.1.3 Bus2=21876020.1.3 LineCode=1/0_AL_2PH_12KV_2 Length=0.187328 units=km
New Line.ND21966110$P5340417-2 phases=2 Bus1=21912292.1.3 Bus2=21966110.1.3 LineCode=2_CLP_2PH_12KV_2 Length=0.016779 units=km
New Line.FD60125$BS3721-T phases=3 Bus1=21896621.1.2.3 Bus2=243621193.1.2.3 LineCode=2_CIC_3PH_12KV_3 Length=0.002923 units=km
New Line.292911595$ND292911525 phases=2 Bus1=292911598.1.3 Bus2=292911525.1.3 LineCode=1/0_AL_2PH_12KV_2 Length=0.007501 units=km
New Line.188371557$P5473203-1 phases=3 Bus1=188371560.1.2.3 Bus2=188371522.1.2.3 LineCode=1/0_JCN_3PH_12KV_3 Length=0.00766 units=km
New Line.4516860E$PME0868-1 phases=3 Bus1=188507874.1.2.3 Bus2=188507943.1.2.3 LineCode=1000_JCN_3PH_12KV_3 Length=0.13921 units=km
New Line.ND21966110$P5376897-2 phases=2 Bus1=21966110.1.3 Bus2=21838106.1.3 LineCode=2_CLP_2PH_12KV_2 Length=0.117278 units=km
New Line.185177352$P5043573-1 phases=2 Bus1=185177355.2.3 Bus2=21877429.2.3 LineCode=2_AL_2PH_12KV_2 Length=0.001942 units=km
New Line.FD60232$21947492 phases=3 Bus1=21914362.1.2.3 Bus2=21947494.1.2.3 LineCode=350_AL_3PH_12KV_3 Length=0.080701 units=km
New Line.ND21966110$ND21949885 phases=2 Bus1=21966110.1.3 Bus2=21949885.1.3 LineCode=2_CLP_2PH_12KV_2 Length=0.047887 units=km
New Line.P5043550-B$242495771 phases=2 Bus1=21877501.2.3 Bus2=242495774.2.3 LineCode=2_AL_2PH_12KV_2 Length=0.213878 units=km
New Line.ND292911481$ND292911525 phases=2 Bus1=292911525.1.3 Bus2=292911463.1.3 LineCode=1/0_AL_2PH_12KV_2 Length=0.010463 units=km
New Line.ND292911525$292911532 phases=2 Bus1=292911525.1.3 Bus2=292911535.1.3 LineCode=1/0_AL_2PH_12KV_2 Length=0.007188 units=km
New Line.ND21949885$P5376273-2 phases=2 Bus1=21949885.1.3 Bus2=21838322.1.3 LineCode=2_CLP_2PH_12KV_2 Length=0.107666 units=km
New Line.P5376272-1$ND21949885 phases=2 Bus1=21949885.1.3 Bus2=21838385.1.3 LineCode=2_CLP_2PH_12KV_2 Length=0.107099 units=km
New Line.FD60126$ND83428526 phases=2 Bus1=21838939.2.3 Bus2=83428526.2.3 LineCode=350_AL_2PH_12KV_2 Length=0.006161 units=km
New Line.B5121054-2$292911532 phases=2 Bus1=292911534.1.3 Bus2=21875885.1.3 LineCode=1/0_AL_2PH_12KV_2 Length=0.128164 units=km
New Line.21947492$P5484431-1 phases=3 Bus1=21947495.1.2.3 Bus2=21914378.1.2.3 LineCode=350_AL_3PH_12KV_3 Length=0.006443 units=km
New Line.21947521$BS3721-R phases=3 Bus1=243621176.1.2.3 Bus2=21947523.1.2.3 LineCode=2_CLP_3PH_12KV_3 Length=0.068724 units=km