! OpenDSS script generated from multiconductor network
Clear

New Circuit.mc_network basekv=12.0 pu=1.000000 angle=0.00 frequency=60.0 phases=3 Mvasc3=143993 Mvasc1=47997.6
~ bus1=-8888882151663.1.2.3

! Line codes
New LineCode.2_CLP_3PH_12KV_3 nphases=3 units=km Rmatrix=[ 0.004558 | 0 0.004558 | 0 0 0.004558 ] Xmatrix=[ 0.000961 | 0 0.000961 | 0 0 0.000961 ] Cmatrix=[ 0 | 0 0 | 0 0 0 ]
New LineCode.4_ACSR_3PH_12KV_3 nphases=3 units=km Rmatrix=[ 0.088508 | 0 0.088508 | 0 0 0.088508 ] Xmatrix=[ 0.032477 | 0 0.032477 | 0 0 0.032477 ] Cmatrix=[ 0 | 0 0 | 0 0 0 ]
New LineCode.1/0_CLP_3PH_12KV_3 nphases=3 units=km Rmatrix=[ 0.099103 | 0 0.099103 | 0 0 0.099103 ] Xmatrix=[ 0.030291 | 0 0.030291 | 0 0 0.030291 ] Cmatrix=[ 0 | 0 0 | 0 0 0 ]
New LineCode.1/0_JCN_3PH_12KV_3 nphases=3 units=km Rmatrix=[ 0.052595 | 0 0.052595 | 0 0 0.052595 ] Xmatrix=[ 0.016076 | 0 0.016076 | 0 0 0.016076 ] Cmatrix=[ 0 | 0 0 | 0 0 0 ]
New LineCode.2_AL_3PH_12KV_3 nphases=3 units=km Rmatrix=[ 0.069507 | 0 0.069507 | 0 0 0.069507 ] Xmatrix=[ 0.014651 | 0 0.014651 | 0 0 0.014651 ] Cmatrix=[ 0 | 0 0 | 0 0 0 ]
New LineCode.750_JCN_3PH_12KV_3 nphases=3 units=km Rmatrix=[ 0.007129 | 0 0.007129 | 0 0 0.007129 ] Xmatrix=[ 0.008755 | 0 0.008755 | 0 0 0.008755 ] Cmatrix=[ 0 | 0 0 | 0 0 0 ]
New LineCode.1/0_JCN_2PH_12KV_2 nphases=2 units=km Rmatrix=[ 0.000903 | 0 0.000903 ] Xmatrix=[ 0.000276 | 0 0.000276 ] Cmatrix=[ 0 | 0 0 ]
New LineCode.2_JCN_3PH_12KV_3 nphases=3 units=km Rmatrix=[ 0.004531 | 0 0.004531 | 0 0 0.004531 ] Xmatrix=[ 0.000955 | 0 0.000955 | 0 0 0.000955 ] Cmatrix=[ 0 | 0 0 | 0 0 0 ]
New LineCode.2_JCN_1PH_12KV_1 nphases=1 units=km Rmatrix=[ 0.00107 ] Xmatrix=[ 0.000225 ] Cmatrix=[ 0 ]
New LineCode.750_CLP_3PH_12KV_3 nphases=3 units=km Rmatrix=[ 0.032125 | 0 0.032125 | 0 0 0.032125 ] Xmatrix=[ 0.039453 | 0 0.039453 | 0 0 0.039453 ] Cmatrix=[ 0 | 0 0 | 0 0 0 ]
New LineCode.1/0_ACSR_3PH_12KV_3 nphases=3 units=km Rmatrix=[ 0.023922 | 0 0.023922 | 0 0 0.023922 ] Xmatrix=[ 0.019046 | 0 0.019046 | 0 0 0.019046 ] Cmatrix=[ 0 | 0 0 | 0 0 0 ]
New LineCode.1/0_AL_3PH_12KV_3 nphases=3 units=km Rmatrix=[ 0.025459 | 0 0.025459 | 0 0 0.025459 ] Xmatrix=[ 0.007782 | 0 0.007782 | 0 0 0.007782 ] Cmatrix=[ 0 | 0 0 | 0 0 0 ]
New LineCode.350_JCN_3PH_12KV_3 nphases=3 units=km Rmatrix=[ 0.001203 | 0 0.001203 | 0 0 0.001203 ] Xmatrix=[ 0.000914 | 0 0.000914 | 0 0 0.000914 ] Cmatrix=[ 0 | 0 0 | 0 0 0 ]
New LineCode.1/0_JCN_1PH_12KV_1 nphases=1 units=km Rmatrix=[ 0.000809 ] Xmatrix=[ 0.000247 ] Cmatrix=[ 0 ]
New LineCode.1/0_CLP_2PH_12KV_2 nphases=2 units=km Rmatrix=[ 0.064904 | 0 0.064904 ] Xmatrix=[ 0.019838 | 0 0.019838 ] Cmatrix=[ 0 | 0 0 ]
New LineCode.2_JCN_2PH_12KV_2 nphases=2 units=km Rmatrix=[ 0.057533 | 0 0.057533 ] Xmatrix=[ 0.012127 | 0 0.012127 ] Cmatrix=[ 0 | 0 0 ]
New LineCode.2_CLP_2PH_12KV_2 nphases=2 units=km Rmatrix=[ 0.05764 | 0 0.05764 ] Xmatrix=[ 0.012149 | 0 0.012149 ] Cmatrix=[ 0 | 0 0 ]
New LineCode.2_ACSR_3PH_12KV_3 nphases=3 units=km Rmatrix=[ 0.003841 | 0 0.003841 | 0 0 0.003841 ] Xmatrix=[ 0.002065 | 0 0.002065 | 0 0 0.002065 ] Cmatrix=[ 0 | 0 0 | 0 0 0 ]
New LineCode.336_ACSR_3PH_12KV_3 nphases=3 units=km Rmatrix=[ 0.028577 | 0 0.028577 | 0 0 0.028577 ] Xmatrix=[ 0.063994 | 0 0.063994 | 0 0 0.063994 ] Cmatrix=[ 0 | 0 0 | 0 0 0 ]
New LineCode.1/0_ACSR_2PH_12KV_2 nphases=2 units=km Rmatrix=[ 0.001816 | 0 0.001816 ] Xmatrix=[ 0.001446 | 0 0.001446 ] Cmatrix=[ 0 | 0 0 ]
New LineCode.336_ACSR_3PH_336_ACSR_N_12KV_4 nphases=4 units=km Rmatrix=[ 0.013066 | 0 0.013066 | 0 0 0.013066 | 0 0 0 0.013066 ] Xmatrix=[ 0.026057 | 0 0.026057 | 0 0 0.026057 | 0 0 0 0.026057 ] Cmatrix=[ 0 | 0 0 | 0 0 0 | 0 0 0 0 ]
New LineCode.6_CU_3PH_12KV_3 nphases=3 units=km Rmatrix=[ 0.020124 | 0 0.020124 | 0 0 0.020124 ] Xmatrix=[ 0.007133 | 0 0.007133 | 0 0 0.007133 ] Cmatrix=[ 0 | 0 0 | 0 0 0 ]
New LineCode.4_ACSR_2PH_12KV_2 nphases=2 units=km Rmatrix=[ 0.250672 | 0 0.250672 ] Xmatrix=[ 0.091982 | 0 0.091982 ] Cmatrix=[ 0 | 0 0 ]
New LineCode.1/0_ACSR_2PH_1/0_ACSR_N_12KV_3_N nphases=3 units=km Rmatrix=[ 0.002637 | 0 0.002637 | 0 0 0.002637 ] Xmatrix=[ 0.001906 | 0 0.001906 | 0 0 0.001906 ] Cmatrix=[ 0 | 0 0 | 0 0 0 ]
New LineCode.6_CU_2PH_12KV_2 nphases=2 units=km Rmatrix=[ 0.120786 | 0 0.120786 ] Xmatrix=[ 0.042813 | 0 0.042813 ] Cmatrix=[ 0 | 0 0 ]
New LineCode.8_ACSR_3PH_12KV_3 nphases=3 units=km Rmatrix=[ 0.306722 | 0 0.306722 | 0 0 0.306722 ] Xmatrix=[ 0.112549 | 0 0.112549 | 0 0 0.112549 ] Cmatrix=[ 0 | 0 0 | 0 0 0 ]
New LineCode.2/0_ACSR_3PH_12KV_3 nphases=3 units=km Rmatrix=[ 0.001451 | 0 0.001451 | 0 0 0.001451 ] Xmatrix=[ 0.001405 | 0 0.001405 | 0 0 0.001405 ] Cmatrix=[ 0 | 0 0 | 0 0 0 ]
New LineCode.2/0_AL_3PH_12KV_3 nphases=3 units=km Rmatrix=[ 1e-05 | 0 1e-05 | 0 0 1e-05 ] Xmatrix=[ 1e-05 | 0 1e-05 | 0 0 1e-05 ] Cmatrix=[ 0 | 0 0 | 0 0 0 ]
New LineCode.1000_CLP_3PH_12KV_3 nphases=3 units=km Rmatrix=[ 0.007742 | 0 0.007742 | 0 0 0.007742 ] Xmatrix=[ 0.011719 | 0 0.011719 | 0 0 0.011719 ] Cmatrix=[ 0 | 0 0 | 0 0 0 ]

! Lines
New Line.111498474$P5588624-1 phases=3 Bus1=111498477.1.2.3 Bus2=111498388.1.2.3 LineCode=2_CLP_3PH_12KV_3 Length=0.008169 units=km
New Line.ND138418952$4730825E phases=3 Bus1=138418952.1.2.3 Bus2=138418946.1.2.3 LineCode=4_ACSR_3PH_12KV_3 Length=0.351808 units=km
New Line.206749688$26294CIT phases=3 Bus1=108258868.1.2.3 Bus2=206749690.1.2.3 LineCode=1/0_CLP_3PH_12KV_3 Length=0.004851 units=km
New Line.1785742E$223090698 phases=3 Bus1=223090662.1.2.3 Bus2=223090700.1.2.3 LineCode=1/0_JCN_3PH_12KV_3 Length=0.069648 units=km
New Line.J602A-1P$205377814 phases=3 Bus1=205377816.1.2.3 Bus2=25997331.1.2.3 LineCode=1/0_CLP_3PH_12KV_3 Length=0.069387 units=km
New Line.177588119$P5424870-1 phases=3 Bus1=177588122.1.2.3 Bus2=84223177.1.2.3 LineCode=2_CLP_3PH_12KV_3 Length=0.001929 units=km
New Line.1785744E$107703739 phases=3 Bus1=107703654.1.2.3 Bus2=107703741.1.2.3 LineCode=2_CLP_3PH_12KV_3 Length=0.094393 units=km
New Line.4833268E$PME3063-1 phases=3 Bus1=183817776.1.2.3 Bus2=183817877.1.2.3 LineCode=1/0_JCN_3PH_12KV_3 Length=0.159541 units=km
New Line.FD76298$259127195 phases=3 Bus1=259127115.1.2.3 Bus2=259127197.1.2.3 LineCode=1/0_JCN_3PH_12KV_3 Length=0.044541 units=km
New Line.205377846$P5573379-1 phases=3 Bus1=205377849.1.2.3 Bus2=25973728.1.2.3 LineCode=1/0_CLP_3PH_12KV_3 Length=0.00144 units=km
New Line.206749688$P5424897 phases=3 Bus1=206749691.1.2.3 Bus2=108258898.1.2.3 LineCode=1/0_CLP_3PH_12KV_3 Length=0.007511 units=km
New Line.223090698$P5573914-1 phases=3 Bus1=223090701.1.2.3 Bus2=223090716.1.2.3 LineCode=1/0_JCN_3PH_12KV_3 Length=0.002644 units=km
New Line.107703739$P5424900-1 phases=3 Bus1=107703742.1.2.3 Bus2=107703690.1.2.3 LineCode=2_CLP_3PH_12KV_3 Length=0.003067 units=km
New Line.259127195$P5347811-1 phases=3 Bus1=259127198.1.2.3 Bus2=259127160.1.2.3 LineCode=1/0_JCN_3PH_12KV_3 Length=0.009601 units=km
New Line.PME3063-4$ND183818014 phases=3 Bus1=183817859.1.2.3 Bus2=183817996.1.2.3 LineCode=1/0_JCN_3PH_12KV_3 Length=0.093009 units=km
New Line.4134655E$206749658 phases=3 Bus1=25998247.1.2.3 Bus2=206749660.1.2.3 LineCode=2_CLP_3PH_12KV_3 Length=0.145835 units=km
New Line.P5347811-1$259127207 phases=3 Bus1=259127160.1.2.3 Bus2=259127210.1.2.3 LineCode=1/0_JCN_3PH_12KV_3 Length=0.00937 units=km
New Line.J602A-2P$P5208602-1 phases=3 Bus1=25997347.1.2.3 Bus2=25973680.1.2.3 LineCode=1/0_CLP_3PH_12KV_3 Length=0.014504 units=km
New Line.4134656E$P5386433-1 phases=3 Bus1=25974169.1.2.3 Bus2=25974185.1.2.3 LineCode=2_CLP_3PH_12KV_3 Length=0.024314 units=km
New Line.J602A-3P$2360533E phases=3 Bus1=25997339.1.2.3 Bus2=25973639.1.2.3 LineCode=1/0_CLP_3PH_12KV_3 Length=0.085327 units=km
New Line.4219218E$25998939 phases=3 Bus1=25995988.1.2.3 Bus2=25998941.1.2.3 LineCode=2_AL_3PH_12KV_3 Length=0.029906 units=km
New Line.366457S$ND109200726 phases=3 Bus1=25996049.1.2.3 Bus2=109200726.1.2.3 LineCode=2_AL_3PH_12KV_3 Length=0.003268 units=km
New Line.259127207$259127263 phases=3 Bus1=259127209.1.2.3 Bus2=259127265.1.2.3 LineCode=1/0_JCN_3PH_12KV_3 Length=0.114329 units=km
New Line.206749658$P5424848-1 phases=3 Bus1=206749661.1.2.3 Bus2=25998263.1.2.3 LineCode=2_CLP_3PH_12KV_3 Length=0.001202 units=km
New Line.25998939$P5429812-1 phases=3 Bus1=25998942.1.2.3 Bus2=25996004.1.2.3 LineCode=2_AL_3PH_12KV_3 Length=0.003224 units=km
New Line.P5411078-1$ND109200726 phases=3 Bus1=109200726.1.2.3 Bus2=25996078.1.2.3 LineCode=2_AL_3PH_12KV_3 Length=0.014656 units=km
New Line.ND109200726$ND25999739 phases=3 Bus1=109200726.1.2.3 Bus2=25999739.1.2.3 LineCode=2_AL_3PH_12KV_3 Length=0.066308 units=km
New Line.ND25999739$P5186535-A phases=3 Bus1=25999739.1.2.3 Bus2=152056447.1.2.3 LineCode=2_AL_3PH_12KV_3 Length=0.062142 units=km
New Line.259127263$P5347810-1 phases=3 Bus1=259127266.1.2.3 Bus2=259127286.1.2.3 LineCode=1/0_JCN_3PH_12KV_3 Length=0.001808 units=km
New Line.185085399$2360534E phases=3 Bus1=185085341.1.2.3 Bus2=185085401.1.2.3 LineCode=1/0_JCN_3PH_12KV_3 Length=0.036962 units=km
New Line.366461S$BS1806-T phases=3 Bus1=25996062.1.2.3 Bus2=25996229.1.2.3 LineCode=2_AL_3PH_12KV_3 Length=0.002724 units=km
New Line.185085399$P5589391-1 phases=3 Bus1=185085402.1.2.3 Bus2=185085364.1.2.3 LineCode=1/0_JCN_3PH_12KV_3 Length=0.001877 units=km
New Line.GS2703-4$ND196825233 phases=3 Bus1=196825233.1.2.3 Bus2=136897269.1.2.3 LineCode=750_JCN_3PH_12KV_3 Length=0.137859 units=km
New Line.199451353$P5162902-A phases=3 Bus1=199451356.1.2.3 Bus2=152056149.1.2.3 LineCode=1/0_CLP_3PH_12KV_3 Length=0.001218 units=km
New Line.176596476$J780A-1P phases=3 Bus1=176596479.1.2.3 Bus2=176596367.1.2.3 LineCode=1/0_JCN_3PH_12KV_3 Length=0.001612 units=km
New Line.237275765$237275790 phases=2 Bus1=237275767.2.3 Bus2=237275792.2.3 LineCode=1/0_JCN_2PH_12KV_2 Length=0.11731 units=km
New Line.1756785E$P5376825-A phases=3 Bus1=25996368.1.2.3 Bus2=152057846.1.2.3 LineCode=2_AL_3PH_12KV_3 Length=0.006098 units=km
New Line.BS1806-R$210702286 phases=3 Bus1=25996221.1.2.3 Bus2=210702288.1.2.3 LineCode=2_AL_3PH_12KV_3 Length=0.040196 units=km
New Line.2377484E$ND160691872 phases=3 Bus1=160691823.1.2.3 Bus2=160691872.1.2.3 LineCode=2_JCN_3PH_12KV_3 Length=0.004051 units=km
New Line.ND160691872$160691921 phases=1 Bus1=160691872.2 Bus2=160691923.2 LineCode=2_JCN_1PH_12KV_1 Length=0.042212 units=km
New Line.4185935ET1$ND196825283 phases=3 Bus1=25972061.1.2.3 Bus2=196825283.1.2.3 LineCode=750_CLP_3PH_12KV_3 Length=0.002772 units=km
New Line.160691921$FC0000-1 phases=1 Bus1=160691924.2 Bus2=160691883.2 LineCode=2_JCN_1PH_12KV_1 Length=0.001015 units=km
New Line.ND196825283$ND25999340 phases=3 Bus1=196825283.1.2.3 Bus2=25999340.1.2.3 LineCode=750_CLP_3PH_12KV_3 Length=0.285138 units=km
New Line.GS2935-3$ND25999340 phases=3 Bus1=25999340.1.2.3 Bus2=172863630.1.2.3 LineCode=750_CLP_3PH_12KV_3 Length=0.223494 units=km
New Line.ND25999340$J099A-3P phases=3 Bus1=25999340.1.2.3 Bus2=25997138.1.2.3 LineCode=1/0_CLP_3PH_12KV_3 Length=0.055622 units=km
New Line.210702286$P5316063-1 phases=3 Bus1=210702289.1.2.3 Bus2=25996323.1.2.3 LineCode=2_AL_3PH_12KV_3 Length=0.00224 units=km
New Line.4593554E$P5325422-1 phases=3 Bus1=25996528.1.2.3 Bus2=25996544.1.2.3 LineCode=2_AL_3PH_12KV_3 Length=0.057404 units=km
New Line.2360685E$25998949 phases=3 Bus1=25996589.1.2.3 Bus2=25998951.1.2.3 LineCode=2_AL_3PH_12KV_3 Length=0.108849 units=km
New Line.ND25999097$25999036 phases=3 Bus1=25999097.1.2.3 Bus2=25999038.1.2.3 LineCode=2_CLP_3PH_12KV_3 Length=0.020668 units=km
New Line.25998949$P5344568-1 phases=3 Bus1=25998952.1.2.3 Bus2=25996605.1.2.3 LineCode=2_AL_3PH_12KV_3 Length=0.002659 units=km
New Line.25999036$P5424015-1 phases=3 Bus1=25999039.1.2.3 Bus2=25997660.1.2.3 LineCode=2_CLP_3PH_12KV_3 Length=0.003261 units=km
New Line.4235646E$25998959 phases=3 Bus1=25996467.1.2.3 Bus2=25998961.1.2.3 LineCode=1/0_JCN_3PH_12KV_3 Length=0.077334 units=km
New Line.4616458E$95176507 phases=3 Bus1=95176416.1.2.3 Bus2=95176509.1.2.3 LineCode=2_CLP_3PH_12KV_3 Length=0.012982 units=km
New Line.FC0000-1$160691933 phases=1 Bus1=160691882.2 Bus2=160691936.2 LineCode=2_JCN_1PH_12KV_1 Length=0.003227 units=km
New Line.4185210E$P5442659-1 phases=3 Bus1=25998036.1.2.3 Bus2=25998052.1.2.3 LineCode=1/0_CLP_3PH_12KV_3 Length=0.032803 units=km
New Line.160691933$177587960 phases=1 Bus1=160691935.2 Bus2=177587962.2 LineCode=2_JCN_1PH_12KV_1 Length=0.087203 units=km
New Line.ND25999167$ND237275676 phases=3 Bus1=25999167.1.2.3 Bus2=237275676.1.2.3 LineCode=1/0_ACSR_3PH_12KV_3 Length=0.031311 units=km
New Line.ND237275676$4737774E phases=3 Bus1=237275676.1.2.3 Bus2=136396800.1.2.3 LineCode=1/0_ACSR_3PH_12KV_3 Length=0.081208 units=km
New Line.P5180328-A$J099A-2P phases=3 Bus1=25997154.1.2.3 Bus2=152056249.1.2.3 LineCode=1/0_CLP_3PH_12KV_3 Length=0.246261 units=km
New Line.GS2935-2$ND196825371 phases=3 Bus1=172863614.1.2.3 Bus2=196825371.1.2.3 LineCode=750_CLP_3PH_12KV_3 Length=0.231932 units=km
New Line.PH970$ND237275676 phases=3 Bus1=237275676.1.2.3 Bus2=237275653.1.2.3 LineCode=1/0_ACSR_3PH_12KV_3 Length=0.00381 units=km
New Line.J099A-4P$P5344749-1 phases=3 Bus1=25997146.1.2.3 Bus2=25972153.1.2.3 LineCode=1/0_CLP_3PH_12KV_3 Length=0.318001 units=km
New Line.177588015$P5620527-A phases=3 Bus1=136396874.1.2.3 Bus2=177588018.1.2.3 LineCode=1/0_JCN_3PH_12KV_3 Length=0.0012 units=km
New Line.237275790$ND237276331 phases=2 Bus1=237275793.2.3 Bus2=237276331.2.3 LineCode=1/0_JCN_2PH_12KV_2 Length=0.006826 units=km
New Line.1990119E$P5325449-1 phases=3 Bus1=25971786.1.2.3 Bus2=25971802.1.2.3 LineCode=1/0_AL_3PH_12KV_3 Length=0.142166 units=km
New Line.ND237276331$237275802 phases=2 Bus1=237276331.2.3 Bus2=237275805.2.3 LineCode=1/0_JCN_2PH_12KV_2 Length=0.005059 units=km
New Line.ND237276331$237275812 phases=2 Bus1=237276331.2.3 Bus2=237275815.2.3 LineCode=1/0_JCN_2PH_12KV_2 Length=0.010329 units=km
New Line.177587960$P5607980-2 phases=1 Bus1=177587963.2 Bus2=160691984.2 LineCode=2_JCN_1PH_12KV_1 Length=0.001067 units=km
New Line.ND172863741$GS2935-1 phases=3 Bus1=172863622.1.2.3 Bus2=172863741.1.2.3 LineCode=350_JCN_3PH_12KV_3 Length=0.005442 units=km
New Line.PH867$240722028 phases=1 Bus1=240721987.1 Bus2=240722030.1 LineCode=1/0_JCN_1PH_12KV_1 Length=0.042323 units=km
New Line.2001525E$P5050100-A phases=2 Bus1=25970737.1.2 Bus2=25970753.1.2 LineCode=1/0_CLP_2PH_12KV_2 Length=0.092067 units=km
New Line.ND196825371$1785713E phases=3 Bus1=196825371.1.2.3 Bus2=25972120.1.2.3 LineCode=750_CLP_3PH_12KV_3 Length=0.071353 units=km
New Line.J099A-1P$P5414392-1 phases=3 Bus1=25997130.1.2.3 Bus2=25972404.1.2.3 LineCode=1/0_CLP_3PH_12KV_3 Length=0.079015 units=km
New Line.4737774E$GS2705-3 phases=3 Bus1=136396801.1.2.3 Bus2=136396727.1.2.3 LineCode=350_JCN_3PH_12KV_3 Length=0.030563 units=km
New Line.PH970$237275753 phases=2 Bus1=237275654.2.3 Bus2=237275755.2.3 LineCode=1/0_JCN_2PH_12KV_2 Length=0.023799 units=km
New Line.ND136397067$177588015 phases=3 Bus1=177588017.1.2.3 Bus2=136397067.1.2.3 LineCode=1/0_JCN_3PH_12KV_3 Length=0.142201 units=km
New Line.GS2703-5$4770205E phases=3 Bus1=136897277.1.2.3 Bus2=136897411.1.2.3 LineCode=1/0_JCN_3PH_12KV_3 Length=0.086034 units=km
New Line.ND151502865$GS2703-3 phases=3 Bus1=136897261.1.2.3 Bus2=151502865.1.2.3 LineCode=1/0_JCN_3PH_12KV_3 Length=0.072489 units=km
New Line.176596495$J780A-2P phases=3 Bus1=176596383.1.2.3 Bus2=176596498.1.2.3 LineCode=1/0_JCN_3PH_12KV_3 Length=0.001462 units=km
New Line.ND136397067$136397080 phases=2 Bus1=136397067.1.3 Bus2=136397061.1.3 LineCode=2_JCN_2PH_12KV_2 Length=0.010757 units=km
New Line.ND151502865$P5610854-1 phases=3 Bus1=151502865.1.2.3 Bus2=136897510.1.2.3 LineCode=1/0_JCN_3PH_12KV_3 Length=0.122449 units=km
New Line.ND136397067$174729881 phases=3 Bus1=136397067.1.2.3 Bus2=174729883.1.2.3 LineCode=1/0_JCN_3PH_12KV_3 Length=0.131453 units=km
New Line.177587882$ND151502865 phases=3 Bus1=151502865.1.2.3 Bus2=177587884.1.2.3 LineCode=1/0_JCN_3PH_12KV_3 Length=0.129059 units=km
New Line.GS2703-2$ND196825321 phases=3 Bus1=136897253.1.2.3 Bus2=196825321.1.2.3 LineCode=750_JCN_3PH_12KV_3 Length=0.207286 units=km
New Line.ND151502865$199856472 phases=2 Bus1=151502865.2.3 Bus2=199856474.2.3 LineCode=2_JCN_2PH_12KV_2 Length=0.019218 units=km
New Line.213094356$J780A-3P phases=1 Bus1=176596375.3 Bus2=213094359.3 LineCode=1/0_JCN_1PH_12KV_1 Length=0.001153 units=km
New Line.237275802$237275822 phases=2 Bus1=237275804.2.3 Bus2=237275824.2.3 LineCode=1/0_JCN_2PH_12KV_2 Length=0.031491 units=km
New Line.237275812$237275842 phases=2 Bus1=237275814.2.3 Bus2=237275844.2.3 LineCode=1/0_JCN_2PH_12KV_2 Length=0.014077 units=km
New Line.ND196825321$4770206E phases=3 Bus1=196825321.1.2.3 Bus2=136897584.1.2.3 LineCode=750_JCN_3PH_12KV_3 Length=0.202074 units=km
New Line.176596495$176596522 phases=3 Bus1=176596497.1.2.3 Bus2=176596524.1.2.3 LineCode=1/0_JCN_3PH_12KV_3 Length=0.124978 units=km
New Line.177588054$GS2703-1 phases=3 Bus1=136897245.1.2.3 Bus2=177588056.1.2.3 LineCode=1/0_JCN_3PH_12KV_3 Length=0.011099 units=km
New Line.J082A-1P$ND172863741 phases=3 Bus1=172863741.1.2.3 Bus2=25972721.1.2.3 LineCode=1/0_JCN_3PH_12KV_3 Length=0.075069 units=km
New Line.J082B-1P$ND172863741 phases=3 Bus1=172863741.1.2.3 Bus2=25972851.1.2.3 LineCode=1/0_JCN_3PH_12KV_3 Length=0.104232 units=km
New Line.240722028$P5772460-2 phases=1 Bus1=240722031.1 Bus2=240722055.1 LineCode=1/0_JCN_1PH_12KV_1 Length=0.002 units=km
New Line.P5345105-1$P5180328-B phases=3 Bus1=152056267.1.2.3 Bus2=25972332.1.2.3 LineCode=1/0_CLP_3PH_12KV_3 Length=0.140578 units=km
New Line.95176507$95833918 phases=3 Bus1=95833894.1.2.3 Bus2=95833921.1.2.3 LineCode=2_CLP_3PH_12KV_3 Length=0.019937 units=km
New Line.95833918$95833943 phases=3 Bus1=95833920.1.2.3 Bus2=95833945.1.2.3 LineCode=2_CLP_3PH_12KV_3 Length=0.160262 units=km
New Line.95833943$ND173451951 phases=3 Bus1=95833946.1.2.3 Bus2=173451951.1.2.3 LineCode=2_CLP_3PH_12KV_3 Length=0.01359 units=km
New Line.173451928$ND173451951 phases=3 Bus1=173451951.1.2.3 Bus2=173451931.1.2.3 LineCode=2_CLP_3PH_12KV_3 Length=0.004441 units=km
New Line.ND173451951$95833968 phases=3 Bus1=173451951.1.2.3 Bus2=95833971.1.2.3 LineCode=2_CLP_3PH_12KV_3 Length=0.011642 units=km
New Line.173451928$173451958 phases=2 Bus1=173451930.2.3 Bus2=173451960.2.3 LineCode=1/0_JCN_2PH_12KV_2 Length=0.197657 units=km
New Line.95833968$95833993 phases=3 Bus1=95833970.1.2.3 Bus2=95833995.1.2.3 LineCode=2_CLP_3PH_12KV_3 Length=0.008458 units=km
New Line.173451958$P5574650-1 phases=2 Bus1=173451961.2.3 Bus2=173451974.2.3 LineCode=1/0_JCN_2PH_12KV_2 Length=0.002511 units=km
New Line.95833993$P5520047-1 phases=3 Bus1=95833996.1.2.3 Bus2=95176441.1.2.3 LineCode=2_CLP_3PH_12KV_3 Length=0.004092 units=km
New Line.136397080$ND135002733 phases=2 Bus1=136397082.1.3 Bus2=135002733.1.3 LineCode=2_JCN_2PH_12KV_2 Length=0.051436 units=km
New Line.177587882$P5610852-1 phases=3 Bus1=177587885.1.2.3 Bus2=151502885.1.2.3 LineCode=1/0_JCN_3PH_12KV_3 Length=0.002223 units=km
New Line.199856472$P5574644-2 phases=2 Bus1=199856475.2.3 Bus2=161141746.2.3 LineCode=2_JCN_2PH_12KV_2 Length=0.000648 units=km
New Line.174729881$P5620530-A phases=3 Bus1=174729884.1.2.3 Bus2=174729815.1.2.3 LineCode=1/0_JCN_3PH_12KV_3 Length=0.00192 units=km
New Line.P5573189-1$213094356 phases=1 Bus1=213094358.3 Bus2=213094293.3 LineCode=1/0_JCN_1PH_12KV_1 Length=0.060729 units=km
New Line.237275822$P5744064-2 phases=2 Bus1=237275825.2.3 Bus2=237276175.2.3 LineCode=1/0_JCN_2PH_12KV_2 Length=0.002039 units=km
New Line.ND237276369$237275842 phases=2 Bus1=237275845.2.3 Bus2=237276369.2.3 LineCode=1/0_JCN_2PH_12KV_2 Length=0.008242 units=km
New Line.1990131E$P5331826-1 phases=3 Bus1=25971760.1.2.3 Bus2=25972016.1.2.3 LineCode=2_AL_3PH_12KV_3 Length=0.040633 units=km
New Line.177588054$0187446 phases=3 Bus1=177588057.1.2.3 Bus2=136897623.1.2.3 LineCode=1/0_JCN_3PH_12KV_3 Length=0.005585 units=km
New Line.176596522$P5586781 phases=3 Bus1=176596525.1.2.3 Bus2=176596540.1.2.3 LineCode=1/0_JCN_3PH_12KV_3 Length=0.004995 units=km
New Line.237275852$ND237276369 phases=2 Bus1=237276369.2.3 Bus2=237275855.2.3 LineCode=1/0_JCN_2PH_12KV_2 Length=0.008822 units=km
New Line.237275862$ND237276369 phases=2 Bus1=237276369.2.3 Bus2=237275865.2.3 LineCode=1/0_JCN_2PH_12KV_2 Length=0.005988 units=km
New Line.ND135002733$BS1104-1 phases=2 Bus1=135002733.1.3 Bus2=25970871.1.3 LineCode=2_CLP_2PH_12KV_2 Length=0.003193 units=km
New Line.ND135002733$BS1108-1 phases=2 Bus1=135002733.1.3 Bus2=25970921.1.3 LineCode=2_JCN_2PH_12KV_2 Length=0.018944 units=km
New Line.174729893$P5620530-B phases=3 Bus1=174729798.1.2.3 Bus2=174729896.1.2.3 LineCode=1/0_JCN_3PH_12KV_3 Length=0.002111 units=km
New Line.ND215471531$PS1230 phases=3 Bus1=215471531.1.2.3 Bus2=215471541.1.2.3 LineCode=1/0_ACSR_3PH_12KV_3 Length=0.004662 units=km
New Line.237275832$P5744064-1 phases=2 Bus1=237276166.2.3 Bus2=237275835.2.3 LineCode=1/0_JCN_2PH_12KV_2 Length=0.001656 units=km
New Line.237275852$237275872 phases=2 Bus1=237275854.2.3 Bus2=237275874.2.3 LineCode=1/0_JCN_2PH_12KV_2 Length=0.039902 units=km
New Line.237275862$237275902 phases=2 Bus1=237275864.2.3 Bus2=237275904.2.3 LineCode=1/0_JCN_2PH_12KV_2 Length=0.093818 units=km
New Line.B5316061-1$BS1108-1 phases=2 Bus1=25970922.1.3 Bus2=25971187.1.3 LineCode=2_CLP_2PH_12KV_2 Length=0.061438 units=km
New Line.B5316053-2$BS1104-1 phases=2 Bus1=25970872.1.3 Bus2=25971340.1.3 LineCode=2_CLP_2PH_12KV_2 Length=0.084623 units=km
New Line.PH912$P5183358-1 phases=3 Bus1=25973773.1.2.3 Bus2=25973789.1.2.3 LineCode=1/0_AL_3PH_12KV_3 Length=0.036114 units=km
New Line.177587948$P5607980-1 phases=1 Bus1=160691975.2 Bus2=177587951.2 LineCode=2_JCN_1PH_12KV_1 Length=0.000646 units=km
New Line.237275753$P5744061-1 phases=2 Bus1=237275756.2.3 Bus2=237275691.2.3 LineCode=1/0_JCN_2PH_12KV_2 Length=0.001124 units=km
New Line.ND149923150$4730840E phases=3 Bus1=149923150.1.2.3 Bus2=149923182.1.2.3 LineCode=1/0_ACSR_3PH_12KV_3 Length=0.023649 units=km
New Line.174729927$174729893 phases=3 Bus1=174729895.1.2.3 Bus2=174729929.1.2.3 LineCode=1/0_JCN_3PH_12KV_3 Length=0.032902 units=km
New Line.PS1230$4912023E phases=3 Bus1=215471542.1.2.3 Bus2=215471508.1.2.3 LineCode=1/0_ACSR_3PH_12KV_3 Length=0.004997 units=km
New Line.237275902$P5744068-1 phases=2 Bus1=237275905.2.3 Bus2=237275918.2.3 LineCode=1/0_JCN_2PH_12KV_2 Length=0.001598 units=km
New Line.237275872$P5744069-1 phases=2 Bus1=237275875.2.3 Bus2=237275986.2.3 LineCode=1/0_JCN_2PH_12KV_2 Length=0.001277 units=km
New Line.237275832$237276234 phases=2 Bus1=237275834.2.3 Bus2=237276236.2.3 LineCode=1/0_JCN_2PH_12KV_2 Length=0.176265 units=km
New Line.26160CIT$ND107703555 phases=3 Bus1=107703555.1.2.3 Bus2=107703532.1.2.3 LineCode=2_ACSR_3PH_12KV_3 Length=0.046634 units=km
New Line.B5316054-2$B5316053-1 phases=2 Bus1=25971331.1.3 Bus2=25971412.1.3 LineCode=2_CLP_2PH_12KV_2 Length=0.023228 units=km
New Line.ND25999594$B5316061-2 phases=2 Bus1=25971196.1.3 Bus2=25999594.1.3 LineCode=2_CLP_2PH_12KV_2 Length=0.163544 units=km
New Line.174729927$P5620531-1 phases=3 Bus1=174729930.1.2.3 Bus2=136397023.1.2.3 LineCode=1/0_JCN_3PH_12KV_3 Length=0.005511 units=km
New Line.4730840E$149923088 phases=3 Bus1=149923167.1.2.3 Bus2=149923090.1.2.3 LineCode=1/0_JCN_3PH_12KV_3 Length=0.043251 units=km
New Line.215471585$4912023E phases=3 Bus1=215471509.1.2.3 Bus2=215471587.1.2.3 LineCode=1/0_JCN_3PH_12KV_3 Length=0.054403 units=km
New Line.237276234$P5744066-1 phases=2 Bus1=237276237.2.3 Bus2=237276252.2.3 LineCode=1/0_JCN_2PH_12KV_2 Length=0.0016 units=km
New Line.ND239017118$4613643E phases=3 Bus1=239017118.1.2.3 Bus2=239017112.1.2.3 LineCode=1/0_ACSR_3PH_12KV_3 Length=0.025499 units=km
New Line.B5316059-2$ND25999594 phases=2 Bus1=25999594.1.3 Bus2=25971124.1.3 LineCode=2_CLP_2PH_12KV_2 Length=0.02162 units=km
New Line.177587918$177587948 phases=1 Bus1=177587950.2 Bus2=177587920.2 LineCode=2_JCN_1PH_12KV_1 Length=0.085108 units=km
New Line.GS2705-2$177588003 phases=3 Bus1=136396719.1.2.3 Bus2=177588005.1.2.3 LineCode=1/0_JCN_3PH_12KV_3 Length=0.110168 units=km
New Line.P5345105-2$P5347808-1 phases=3 Bus1=25972341.1.2.3 Bus2=25972201.1.2.3 LineCode=1/0_CLP_3PH_12KV_3 Length=0.068749 units=km
New Line.J082B-2P$P5331558-2 phases=2 Bus1=25972875.1.2 Bus2=25973011.1.2 LineCode=2_JCN_2PH_12KV_2 Length=0.04758 units=km
New Line.J082A-2P$ND25999299 phases=3 Bus1=25972745.1.2.3 Bus2=25999299.1.2.3 LineCode=1/0_CLP_3PH_12KV_3 Length=0.092777 units=km
New Line.176596476$J082A-3P phases=3 Bus1=25972729.1.2.3 Bus2=176596478.1.2.3 LineCode=1/0_JCN_3PH_12KV_3 Length=0.230456 units=km
New Line.ND25999299$199451353 phases=3 Bus1=25999299.1.2.3 Bus2=199451355.1.2.3 LineCode=1/0_CLP_3PH_12KV_3 Length=0.058176 units=km
New Line.P5744061-2$237275765 phases=2 Bus1=237275700.2.3 Bus2=237275768.2.3 LineCode=1/0_JCN_2PH_12KV_2 Length=0.001231 units=km
New Line.P5442697-1$ND25999299 phases=3 Bus1=25999299.1.2.3 Bus2=25997808.1.2.3 LineCode=1/0_CLP_3PH_12KV_3 Length=0.055859 units=km
New Line.B5316057-2$ND25999594 phases=2 Bus1=25999594.1.3 Bus2=25997890.1.3 LineCode=2_CLP_2PH_12KV_2 Length=0.010231 units=km
New Line.26160CIT$107703621 phases=3 Bus1=107703533.1.2.3 Bus2=107703623.1.2.3 LineCode=2_CLP_3PH_12KV_3 Length=0.049784 units=km
New Line.177588003$P5620527-B phases=3 Bus1=177588006.1.2.3 Bus2=136396892.1.2.3 LineCode=1/0_JCN_3PH_12KV_3 Length=0.001408 units=km
New Line.177587918$P5607990-2 phases=1 Bus1=177587921.2 Bus2=160692059.2 LineCode=2_JCN_1PH_12KV_1 Length=0.000953 units=km
New Line.ND196825233$4770204E phases=3 Bus1=136897445.1.2.3 Bus2=196825233.1.2.3 LineCode=750_JCN_3PH_12KV_3 Length=0.063276 units=km
New Line.P5314642-1$J082A-4P phases=3 Bus1=25972737.1.2.3 Bus2=25972452.1.2.3 LineCode=1/0_CLP_3PH_12KV_3 Length=0.100012 units=km
New Line.GS4026-3$J082B-4P phases=3 Bus1=25972867.1.2.3 Bus2=263688326.1.2.3 LineCode=2_CLP_3PH_12KV_3 Length=0.561616 units=km
New Line.ND138418952$ND25999173 phases=3 Bus1=138418952.1.2.3 Bus2=25999173.1.2.3 LineCode=1/0_ACSR_3PH_12KV_3 Length=0.240598 units=km
New Line.ND25999173$2155696E phases=3 Bus1=25999173.1.2.3 Bus2=25974390.1.2.3 LineCode=1/0_ACSR_3PH_12KV_3 Length=0.017696 units=km
New Line.PS0247$4219219E phases=3 Bus1=25998764.1.2.3 Bus2=25995977.1.2.3 LineCode=336_ACSR_3PH_12KV_3 Length=0.263138 units=km
New Line.ND25999173$ND25999693 phases=3 Bus1=25999173.1.2.3 Bus2=25999693.1.2.3 LineCode=1/0_ACSR_3PH_12KV_3 Length=0.383372 units=km
New Line.ND25999693$4134656E phases=3 Bus1=25999693.1.2.3 Bus2=25974168.1.2.3 LineCode=1/0_ACSR_3PH_12KV_3 Length=0.077996 units=km
New Line.ND25999693$4134655E phases=3 Bus1=25999693.1.2.3 Bus2=25998246.1.2.3 LineCode=2_ACSR_3PH_12KV_3 Length=0.077996 units=km
New Line.4219219E$ND25999620 phases=3 Bus1=25995977.1.2.3 Bus2=25999620.1.2.3 LineCode=336_ACSR_3PH_12KV_3 Length=0.141298 units=km
New Line.ND25999620$4219218E phases=3 Bus1=25999620.1.2.3 Bus2=25995987.1.2.3 LineCode=4_ACSR_3PH_12KV_3 Length=0.013222 units=km
New Line.ND25999620$ND25999621 phases=3 Bus1=25999620.1.2.3 Bus2=25999621.1.2.3 LineCode=336_ACSR_3PH_12KV_3 Length=0.157713 units=km
New Line.ND25999621$366457S phases=3 Bus1=25999621.1.2.3 Bus2=25996048.1.2.3 LineCode=4_ACSR_3PH_12KV_3 Length=0.00805 units=km
New Line.ND25999621$366458S phases=3 Bus1=25999621.1.2.3 Bus2=25996963.1.2.3 LineCode=336_ACSR_3PH_12KV_3 Length=0.077702 units=km
New Line.366458S$4969221E phases=3 Bus1=25996963.1.2.3 Bus2=240154879.1.2.3 LineCode=336_ACSR_3PH_12KV_3 Length=0.078322 units=km
New Line.4969221E$4663916E phases=3 Bus1=240154879.1.2.3 Bus2=25996668.1.2.3 LineCode=336_ACSR_3PH_12KV_3 Length=0.074368 units=km
New Line.2360533E$2360534E phases=3 Bus1=25973638.1.2.3 Bus2=185085340.1.2.3 LineCode=4_ACSR_3PH_12KV_3 Length=0.057437 units=km
New Line.4663916E$ND25999271 phases=3 Bus1=25996668.1.2.3 Bus2=25999271.1.2.3 LineCode=336_ACSR_3PH_12KV_3 Length=0.21634 units=km
New Line.ND25999271$ND110431497 phases=3 Bus1=25999271.1.2.3 Bus2=110431497.1.2.3 LineCode=4_ACSR_3PH_12KV_3 Length=0.022343 units=km
New Line.ND25999271$366461S phases=3 Bus1=25999271.1.2.3 Bus2=25996061.1.2.3 LineCode=4_ACSR_3PH_12KV_3 Length=0.077221 units=km
New Line.ND110431497$ND25999852 phases=3 Bus1=110431497.1.2.3 Bus2=25999852.1.2.3 LineCode=4_ACSR_3PH_12KV_3 Length=0.021345 units=km
New Line.366463ST1$ND25999852 phases=2 Bus1=25999852.1.2 Bus2=25998857.1.2 LineCode=1/0_ACSR_2PH_12KV_2 Length=0.021345 units=km
New Line.ND25999852$ND26013608 phases=3 Bus1=25999852.1.2.3 Bus2=26013608.1.2.3 LineCode=336_ACSR_3PH_12KV_3 Length=0.14867 units=km
New Line.ND26013392$1990119E phases=3 Bus1=26013392.1.2.3 Bus2=25971785.1.2.3 LineCode=1/0_ACSR_3PH_12KV_3 Length=0.057799 units=km
New Line.ND26013392$ND25999721 phases=3 Bus1=26013392.1.2.3 Bus2=25999721.1.2.3 LineCode=1/0_ACSR_3PH_12KV_3 Length=0.057799 units=km
New Line.ND26013608$1756785E phases=3 Bus1=26013608.1.2.3 Bus2=25996367.1.2.3 LineCode=4_ACSR_3PH_12KV_3 Length=0.11842 units=km
New Line.ND26013608$1756786E phases=3 Bus1=26013608.1.2.3 Bus2=25996722.1.2.3 LineCode=4_ACSR_3PH_12KV_3 Length=0.06256 units=km
New Line.1756786E$4409877E phases=3 Bus1=25996722.1.2.3 Bus2=169472894.1.2.3 LineCode=4_ACSR_3PH_12KV_3 Length=0.067089 units=km
New Line.366463ST1$50292CIT phases=2 Bus1=25998858.1.2 Bus2=25996695.1.2 LineCode=1/0_ACSR_2PH_12KV_2 Length=0.022746 units=km
New Line.1756788E$4409877E phases=3 Bus1=169472894.1.2.3 Bus2=25996751.1.2.3 LineCode=4_ACSR_3PH_12KV_3 Length=0.016532 units=km
New Line.PS0160$4053321E phases=4 Bus1=25970466.0.1.2.3 Bus2=25998313.0.1.2.3 LineCode=336_ACSR_3PH_336_ACSR_N_12KV_4 Length=0.039755 units=km
New Line.PS0160$4053318E phases=4 Bus1=25998312.0.1.2.3 Bus2=25996886.0.1.2.3 LineCode=336_ACSR_3PH_336_ACSR_N_12KV_4 Length=0.070239 units=km
New Line.PS0244$4053318E phases=4 Bus1=25996886.0.1.2.3 Bus2=25998343.0.1.2.3 LineCode=336_ACSR_3PH_336_ACSR_N_12KV_4 Length=0.222921 units=km
New Line.PS0244$ND25999669 phases=4 Bus1=25998344.0.1.2.3 Bus2=25999669.0.1.2.3 LineCode=336_ACSR_3PH_336_ACSR_N_12KV_4 Length=0.103721 units=km
New Line.ND25999669$2377485E phases=4 Bus1=25999669.0.1.2.3 Bus2=25970540.0.1.2.3 LineCode=336_ACSR_3PH_336_ACSR_N_12KV_4 Length=0.128444 units=km