! OpenDSS script generated from multiconductor network
Clear

New Circuit.mc_network basekv=12.0 pu=1.000000 angle=0.00 frequency=60.0 phases=3 Mvasc3=143993 Mvasc1=47997.6
~ bus1=-8888882152040.1.2.3

! Line codes
New LineCode.1/0_JCN_3PH_12KV_3 nphases=3 units=km Rmatrix=[ 0.000941 | 0 0.000941 | 0 0 0.000941 ] Xmatrix=[ 0.000288 | 0 0.000288 | 0 0 0.000288 ] Cmatrix=[ 0 | 0 0 | 0 0 0 ]
New LineCode.1/0_JCN_1PH_12KV_1 nphases=1 units=km Rmatrix=[ 0.00101 ] Xmatrix=[ 0.000309 ] Cmatrix=[ 0 ]
New LineCode.1/0_JCN_2PH_12KV_2 nphases=2 units=km Rmatrix=[ 0.097699 | 0 0.097699 ] Xmatrix=[ 0.029861 | 0 0.029861 ] Cmatrix=[ 0 | 0 0 ]
New LineCode.1000_JCN_3PH_12KV_3 nphases=3 units=km Rmatrix=[ 0.015061 | 0 0.015061 | 0 0 0.015061 ] Xmatrix=[ 0.022798 | 0 0.022798 | 0 0 0.022798 ] Cmatrix=[ 0 | 0 0 | 0 0 0 ]
New LineCode.1000_CLP_3PH_12KV_3 nphases=3 units=km Rmatrix=[ 0.027009 | 0 0.027009 | 0 0 0.027009 ] Xmatrix=[ 0.040883 | 0 0.040883 | 0 0 0.040883 ] Cmatrix=[ 0 | 0 0 | 0 0 0 ]
New LineCode.1/0_CLP_3PH_12KV_3 nphases=3 units=km Rmatrix=[ 0.047605 | 0 0.047605 | 0 0 0.047605 ] Xmatrix=[ 0.01455 | 0 0.01455 | 0 0 0.01455 ] Cmatrix=[ 0 | 0 0 | 0 0 0 ]
New LineCode.2_CLP_1PH_12KV_1 nphases=1 units=km Rmatrix=[ 0.08925 ] Xmatrix=[ 0.018812 ] Cmatrix=[ 0 ]
New LineCode.2_CLP_3PH_12KV_3 nphases=3 units=km Rmatrix=[ 0.096052 | 0 0.096052 | 0 0 0.096052 ] Xmatrix=[ 0.020246 | 0 0.020246 | 0 0 0.020246 ] Cmatrix=[ 0 | 0 0 | 0 0 0 ]
New LineCode.350_JCN_3PH_12KV_3 nphases=3 units=km Rmatrix=[ 0.057893 | 0 0.057893 | 0 0 0.057893 ] Xmatrix=[ 0.043987 | 0 0.043987 | 0 0 0.043987 ] Cmatrix=[ 0 | 0 0 | 0 0 0 ]
New LineCode.2_CLP_2PH_12KV_2 nphases=2 units=km Rmatrix=[ 0.015205 | 0 0.015205 ] Xmatrix=[ 0.003205 | 0 0.003205 ] Cmatrix=[ 0 | 0 0 ]
New LineCode.336_ACSR_3PH_336_ACSR_N_12KV_4 nphases=4 units=km Rmatrix=[ 0.00778 | 0 0.00778 | 0 0 0.00778 | 0 0 0 0.00778 ] Xmatrix=[ 0.015515 | 0 0.015515 | 0 0 0.015515 | 0 0 0 0.015515 ] Cmatrix=[ 0 | 0 0 | 0 0 0 | 0 0 0 0 ]
New LineCode.750_CLP_3PH_12KV_3 nphases=3 units=km Rmatrix=[ 0.001072 | 0 0.001072 | 0 0 0.001072 ] Xmatrix=[ 0.001317 | 0 0.001317 | 0 0 0.001317 ] Cmatrix=[ 0 | 0 0 | 0 0 0 ]
New LineCode.350_CLP_3PH_12KV_3 nphases=3 units=km Rmatrix=[ 0.039208 | 0 0.039208 | 0 0 0.039208 ] Xmatrix=[ 0.02979 | 0 0.02979 | 0 0 0.02979 ] Cmatrix=[ 0 | 0 0 | 0 0 0 ]
New LineCode.2_JCN_1PH_12KV_1 nphases=1 units=km Rmatrix=[ 0.158458 ] Xmatrix=[ 0.0334 ] Cmatrix=[ 0 ]
New LineCode.4_ACSR_3PH_12KV_3 nphases=3 units=km Rmatrix=[ 0.288326 | 0 0.288326 | 0 0 0.288326 ] Xmatrix=[ 0.105799 | 0 0.105799 | 0 0 0.105799 ] Cmatrix=[ 0 | 0 0 | 0 0 0 ]
New LineCode.6_CU_3PH_12KV_3 nphases=3 units=km Rmatrix=[ 0.006403 | 0 0.006403 | 0 0 0.006403 ] Xmatrix=[ 0.00227 | 0 0.00227 | 0 0 0.00227 ] Cmatrix=[ 0 | 0 0 | 0 0 0 ]
New LineCode.4_CU_3PH_12KV_3 nphases=3 units=km Rmatrix=[ 0.181353 | 0 0.181353 | 0 0 0.181353 ] Xmatrix=[ 0.098838 | 0 0.098838 | 0 0 0.098838 ] Cmatrix=[ 0 | 0 0 | 0 0 0 ]
New LineCode.2_CU_3PH_12KV_3 nphases=3 units=km Rmatrix=[ 0.001965 | 0 0.001965 | 0 0 0.001965 ] Xmatrix=[ 0.001598 | 0 0.001598 | 0 0 0.001598 ] Cmatrix=[ 0 | 0 0 | 0 0 0 ]
New LineCode.1/0_ACSR_3PH_1/0_ACSR_N_12KV_4 nphases=4 units=km Rmatrix=[ 0.022077 | 0 0.022077 | 0 0 0.022077 | 0 0 0 0.022077 ] Xmatrix=[ 0.015955 | 0 0.015955 | 0 0 0.015955 | 0 0 0 0.015955 ] Cmatrix=[ 0 | 0 0 | 0 0 0 | 0 0 0 0 ]
New LineCode.336_ACSR_3PH_12KV_3 nphases=3 units=km Rmatrix=[ 0.000761 | 0 0.000761 | 0 0 0.000761 ] Xmatrix=[ 0.001704 | 0 0.001704 | 0 0 0.001704 ] Cmatrix=[ 0 | 0 0 | 0 0 0 ]
New LineCode.336_ATW_3PH_336_ATW_N_12KV_4 nphases=4 units=km Rmatrix=[ 1e-05 | 0 1e-05 | 0 0 1e-05 | 0 0 0 1e-05 ] Xmatrix=[ 1e-05 | 0 1e-05 | 0 0 1e-05 | 0 0 0 1e-05 ] Cmatrix=[ 0 | 0 0 | 0 0 0 | 0 0 0 0 ]
New LineCode.336_ATW_3PH_12KV_3 nphases=3 units=km Rmatrix=[ 1e-05 | 0 1e-05 | 0 0 1e-05 ] Xmatrix=[ 1e-05 | 0 1e-05 | 0 0 1e-05 ] Cmatrix=[ 0 | 0 0 | 0 0 0 ]
New LineCode.1/0_ATW_3PH_12KV_3 nphases=3 units=km Rmatrix=[ 1e-05 | 0 1e-05 | 0 0 1e-05 ] Xmatrix=[ 1e-05 | 0 1e-05 | 0 0 1e-05 ] Cmatrix=[ 0 | 0 0 | 0 0 0 ]
New LineCode.UNK_UNK_1PH_12KV_1 nphases=1 units=km Rmatrix=[ 0.005899 ] Xmatrix=[ 0.001243 ] Cmatrix=[ 0 ]
New LineCode.UNK_UNK_2PH_12KV_2 nphases=2 units=km Rmatrix=[ 0.085084 | 0 0.085084 ] Xmatrix=[ 0.017934 | 0 0.017934 ] Cmatrix=[ 0 | 0 0 ]

! Lines
New Line.211962350$P5725042-A phases=3 Bus1=211961698.1.2.3 Bus2=211962353.1.2.3 LineCode=1/0_JCN_3PH_12KV_3 Length=0.001916 units=km
New Line.P5725041-B$213512264 phases=3 Bus1=213511612.1.2.3 Bus2=213512267.1.2.3 LineCode=1/0_JCN_3PH_12KV_3 Length=0.001245 units=km
New Line.P5717854-B$213512417 phases=3 Bus1=213511216.1.2.3 Bus2=213512420.1.2.3 LineCode=1/0_JCN_3PH_12KV_3 Length=0.001245 units=km
New Line.P5740826-1$232512009 phases=1 Bus1=232512012.1 Bus2=232511653.1 LineCode=1/0_JCN_1PH_12KV_1 Length=0.001822 units=km
New Line.232512059$232512034 phases=1 Bus1=232512061.1 Bus2=232512036.1 LineCode=1/0_JCN_1PH_12KV_1 Length=0.032827 units=km
New Line.235550906$235550881 phases=1 Bus1=235550883.3 Bus2=235550908.3 LineCode=1/0_JCN_1PH_12KV_1 Length=0.050316 units=km
New Line.235550956$235550931 phases=1 Bus1=235550958.3 Bus2=235550933.3 LineCode=1/0_JCN_1PH_12KV_1 Length=0.030027 units=km
New Line.236959935$ND236959126 phases=1 Bus1=236959938.2 Bus2=236959126.2 LineCode=1/0_JCN_1PH_12KV_1 Length=0.01401 units=km
New Line.GS8946-6$242527929 phases=2 Bus1=242527003.1.2 Bus2=242527931.1.2 LineCode=1/0_JCN_2PH_12KV_2 Length=0.136473 units=km
New Line.245718034$ND284571759 phases=1 Bus1=245718036.2 Bus2=284571759.2 LineCode=1/0_JCN_1PH_12KV_1 Length=0.047985 units=km
New Line.P5717842-B$213512319 phases=3 Bus1=210461364.1.2.3 Bus2=213512322.1.2.3 LineCode=1/0_JCN_3PH_12KV_3 Length=0.001742 units=km
New Line.213512774$213512800 phases=3 Bus1=213512776.1.2.3 Bus2=213512802.1.2.3 LineCode=1/0_JCN_3PH_12KV_3 Length=0.013164 units=km
New Line.P5749693-B$231183034 phases=1 Bus1=231183037.3 Bus2=231180871.3 LineCode=1/0_JCN_1PH_12KV_1 Length=0.001816 units=km
New Line.P5749695-B$231182918 phases=1 Bus1=231182921.2 Bus2=231180960.2 LineCode=1/0_JCN_1PH_12KV_1 Length=0.001849 units=km
New Line.P5749696-1$231182868 phases=1 Bus1=231182871.2 Bus2=231181819.2 LineCode=1/0_JCN_1PH_12KV_1 Length=0.001764 units=km
New Line.231182611$P5749710-2 phases=1 Bus1=231181488.1 Bus2=231182614.1 LineCode=1/0_JCN_1PH_12KV_1 Length=0.001587 units=km
New Line.P5749712-A$231182636 phases=1 Bus1=231181031.1 Bus2=231182639.1 LineCode=1/0_JCN_1PH_12KV_1 Length=0.002024 units=km
New Line.235526887$P5740823-1 phases=1 Bus1=235526890.1 Bus2=235526464.1 LineCode=1/0_JCN_1PH_12KV_1 Length=0.001723 units=km
New Line.235526766$P5740824-1 phases=1 Bus1=235526769.1 Bus2=235526659.1 LineCode=1/0_JCN_1PH_12KV_1 Length=0.00103 units=km
New Line.P5759855-B$235550621 phases=1 Bus1=235550089.1 Bus2=235550624.1 LineCode=1/0_JCN_1PH_12KV_1 Length=0.002136 units=km
New Line.ND149347305$GS6452-1 phases=3 Bus1=149347305.1.2.3 Bus2=101883220.1.2.3 LineCode=1000_JCN_3PH_12KV_3 Length=0.024526 units=km
New Line.ND149347305$GS6564-4 phases=3 Bus1=149347305.1.2.3 Bus2=196911138.1.2.3 LineCode=1000_JCN_3PH_12KV_3 Length=0.420791 units=km
New Line.GS6564-3$GS7889-3 phases=3 Bus1=196911129.1.2.3 Bus2=205365176.1.2.3 LineCode=1000_JCN_3PH_12KV_3 Length=0.141611 units=km
New Line.GS6564-1$ND107553409 phases=3 Bus1=196911111.1.2.3 Bus2=107553409.1.2.3 LineCode=1000_CLP_3PH_12KV_3 Length=0.159699 units=km
New Line.ND107553409$GS6487-4 phases=3 Bus1=107553409.1.2.3 Bus2=106183810.1.2.3 LineCode=1000_CLP_3PH_12KV_3 Length=0.285111 units=km
New Line.ND107553409$J941-1P phases=3 Bus1=107553409.1.2.3 Bus2=107553285.1.2.3 LineCode=1/0_CLP_3PH_12KV_3 Length=0.018659 units=km
New Line.235550651$P5759854-2 phases=1 Bus1=235550277.1 Bus2=235550654.1 LineCode=1/0_JCN_1PH_12KV_1 Length=0.000918 units=km
New Line.236959635$ND236959079 phases=1 Bus1=236959638.3 Bus2=236959079.3 LineCode=1/0_JCN_1PH_12KV_1 Length=0.00685 units=km
New Line.236959910$ND236959154 phases=1 Bus1=236959913.1 Bus2=236959154.1 LineCode=1/0_JCN_1PH_12KV_1 Length=0.012847 units=km
New Line.ND236959126$236959685 phases=1 Bus1=236959126.2 Bus2=236959687.2 LineCode=1/0_JCN_1PH_12KV_1 Length=0.034806 units=km
New Line.ND236959126$236959960 phases=1 Bus1=236959126.2 Bus2=236959963.2 LineCode=1/0_JCN_1PH_12KV_1 Length=0.015154 units=km
New Line.242149225$P5763047-2 phases=1 Bus1=242149228.2 Bus2=242148331.2 LineCode=1/0_JCN_1PH_12KV_1 Length=0.001557 units=km
New Line.242877066$P5751804-1 phases=3 Bus1=242877069.1.2.3 Bus2=242876959.1.2.3 LineCode=1/0_JCN_3PH_12KV_3 Length=0.001912 units=km
New Line.245717852$245717993 phases=1 Bus1=245717995.1 Bus2=245717855.1 LineCode=1/0_JCN_1PH_12KV_1 Length=0.029891 units=km
New Line.ND284571759$245717893 phases=1 Bus1=284571759.2 Bus2=245717896.2 LineCode=1/0_JCN_1PH_12KV_1 Length=0.002104 units=km
New Line.245717934$ND284571759 phases=1 Bus1=284571759.2 Bus2=245717937.2 LineCode=1/0_JCN_1PH_12KV_1 Length=0.00886 units=km
New Line.GS7890-3$GS7889-4 phases=3 Bus1=205365185.1.2.3 Bus2=205366422.1.2.3 LineCode=1000_JCN_3PH_12KV_3 Length=0.196556 units=km
New Line.ND201251498$GS6487-3 phases=3 Bus1=106183802.1.2.3 Bus2=201251498.1.2.3 LineCode=1000_JCN_3PH_12KV_3 Length=0.520596 units=km
New Line.211962375$211962350 phases=3 Bus1=211962352.1.2.3 Bus2=211962377.1.2.3 LineCode=1/0_JCN_3PH_12KV_3 Length=0.0161 units=km
New Line.P5717848-B$213512014 phases=3 Bus1=213511332.1.2.3 Bus2=213512017.1.2.3 LineCode=1/0_JCN_3PH_12KV_3 Length=0.001234 units=km
New Line.213512264$213512289 phases=3 Bus1=213512266.1.2.3 Bus2=213512291.1.2.3 LineCode=1/0_JCN_3PH_12KV_3 Length=0.070123 units=km
New Line.213512417$213512543 phases=3 Bus1=213512419.1.2.3 Bus2=213512545.1.2.3 LineCode=1/0_JCN_3PH_12KV_3 Length=0.052229 units=km
New Line.231182811$P5749700-2 phases=1 Bus1=231181750.3 Bus2=231182814.3 LineCode=1/0_JCN_1PH_12KV_1 Length=0.001954 units=km
New Line.232512034$P5740827-A phases=1 Bus1=232512037.1 Bus2=232511797.1 LineCode=1/0_JCN_1PH_12KV_1 Length=0.002131 units=km
New Line.235550931$P5759857-A phases=1 Bus1=235550934.3 Bus2=235550178.3 LineCode=1/0_JCN_1PH_12KV_1 Length=0.002004 units=km
New Line.GS6487-2$J481-2P phases=1 Bus1=106183786.2 Bus2=110669987.2 LineCode=2_CLP_1PH_12KV_1 Length=0.092156 units=km
New Line.RCS7823-4$ND201251498 phases=3 Bus1=201251498.1.2.3 Bus2=201251282.1.2.3 LineCode=1000_JCN_3PH_12KV_3 Length=0.017745 units=km
New Line.ND201251498$P5707471 phases=3 Bus1=201251498.1.2.3 Bus2=201251480.1.2.3 LineCode=1000_JCN_3PH_12KV_3 Length=0.001537 units=km
New Line.GS7890-4$GS7891-3 phases=3 Bus1=205366438.1.2.3 Bus2=205365377.1.2.3 LineCode=1000_JCN_3PH_12KV_3 Length=0.409557 units=km
New Line.GS7890-2$205366817 phases=2 Bus1=205366414.1.3 Bus2=205366819.1.3 LineCode=1/0_JCN_2PH_12KV_2 Length=0.137408 units=km
New Line.J941-3P$206541989 phases=3 Bus1=107553293.1.2.3 Bus2=206541991.1.2.3 LineCode=1/0_CLP_3PH_12KV_3 Length=0.146532 units=km
New Line.GS6487-1$GS6496-4 phases=3 Bus1=106183794.1.2.3 Bus2=106183337.1.2.3 LineCode=1000_CLP_3PH_12KV_3 Length=0.366347 units=km
New Line.J941-4P$760E phases=3 Bus1=107553301.1.2.3 Bus2=137120488.1.2.3 LineCode=2_CLP_3PH_12KV_3 Length=0.047582 units=km
New Line.206541989$P5604094-1 phases=3 Bus1=206541992.1.2.3 Bus2=135020543.1.2.3 LineCode=1/0_CLP_3PH_12KV_3 Length=0.002332 units=km
New Line.P5714151-1$205366817 phases=2 Bus1=205366820.1.3 Bus2=205365665.1.3 LineCode=1/0_JCN_2PH_12KV_2 Length=0.002382 units=km
New Line.GS7890-6$220046178 phases=3 Bus1=205366454.1.2.3 Bus2=220046180.1.2.3 LineCode=1/0_JCN_3PH_12KV_3 Length=0.135894 units=km
New Line.106184277$J481-3P phases=1 Bus1=110669979.2 Bus2=106184279.2 LineCode=2_CLP_1PH_12KV_1 Length=0.050086 units=km
New Line.GS6333-2$RCS7823-3 phases=3 Bus1=201251274.1.2.3 Bus2=183157983.1.2.3 LineCode=1000_JCN_3PH_12KV_3 Length=0.177892 units=km
New Line.GS7891-2$ND205367001 phases=3 Bus1=205365368.1.2.3 Bus2=205367001.1.2.3 LineCode=350_JCN_3PH_12KV_3 Length=0.018588 units=km
New Line.220046178$P5728046-1 phases=3 Bus1=220046181.1.2.3 Bus2=220046134.1.2.3 LineCode=1/0_JCN_3PH_12KV_3 Length=0.001999 units=km
New Line.GS7891-4$GS8584-4 phases=3 Bus1=205365386.1.2.3 Bus2=236815254.1.2.3 LineCode=1000_JCN_3PH_12KV_3 Length=0.242357 units=km
New Line.P5759857-B$235550906 phases=1 Bus1=235550909.3 Bus2=235550196.3 LineCode=1/0_JCN_1PH_12KV_1 Length=0.001925 units=km
New Line.ND236959079$236959585 phases=1 Bus1=236959079.3 Bus2=236959588.3 LineCode=1/0_JCN_1PH_12KV_1 Length=0.008754 units=km
New Line.ND236959079$236959610 phases=1 Bus1=236959079.3 Bus2=236959613.3 LineCode=1/0_JCN_1PH_12KV_1 Length=0.006861 units=km
New Line.236959860$ND236959154 phases=1 Bus1=236959154.1 Bus2=236959863.1 LineCode=1/0_JCN_1PH_12KV_1 Length=0.007401 units=km
New Line.ND236959154$236959885 phases=1 Bus1=236959154.1 Bus2=236959888.1 LineCode=1/0_JCN_1PH_12KV_1 Length=0.005482 units=km
New Line.P5763053-2$242149374 phases=1 Bus1=242148467.2 Bus2=242149377.2 LineCode=1/0_JCN_1PH_12KV_1 Length=0.00185 units=km
New Line.242527929$P5745507-2 phases=2 Bus1=242527932.1.2 Bus2=242527871.1.2 LineCode=1/0_JCN_2PH_12KV_2 Length=0.001589 units=km
New Line.245717596$PME8961-2 phases=1 Bus1=242527260.2 Bus2=245717599.2 LineCode=1/0_JCN_1PH_12KV_1 Length=0.000908 units=km
New Line.213512800$P5717908-1 phases=3 Bus1=213512803.1.2.3 Bus2=210461710.1.2.3 LineCode=1/0_JCN_3PH_12KV_3 Length=0.001684 units=km
New Line.213512319$213512830 phases=3 Bus1=213512321.1.2.3 Bus2=213512832.1.2.3 LineCode=1/0_JCN_3PH_12KV_3 Length=0.18897 units=km
New Line.231182636$231182611 phases=1 Bus1=231182638.1 Bus2=231182613.1 LineCode=1/0_JCN_1PH_12KV_1 Length=0.011506 units=km
New Line.232511984$P5740826-2 phases=1 Bus1=232511662.1 Bus2=232511987.1 LineCode=1/0_JCN_1PH_12KV_1 Length=0.001358 units=km
New Line.235550621$235550651 phases=1 Bus1=235550653.1 Bus2=235550623.1 LineCode=1/0_JCN_1PH_12KV_1 Length=0.087069 units=km
New Line.236959685$P5771884-2 phases=1 Bus1=236959688.2 Bus2=236958833.2 LineCode=1/0_JCN_1PH_12KV_1 Length=0.001287 units=km
New Line.236959960$236959660 phases=1 Bus1=236959962.2 Bus2=236959662.2 LineCode=1/0_JCN_1PH_12KV_1 Length=0.009013 units=km
New Line.PME8947-1$PME9161-2 phases=3 Bus1=242526747.1.2.3 Bus2=242527534.1.2.3 LineCode=1000_JCN_3PH_12KV_3 Length=0.264107 units=km
New Line.245716845$245717893 phases=1 Bus1=245717895.2 Bus2=245716847.2 LineCode=1/0_JCN_1PH_12KV_1 Length=0.129874 units=km
New Line.245717528$245717852 phases=1 Bus1=245717854.1 Bus2=245717530.1 LineCode=1/0_JCN_1PH_12KV_1 Length=0.053569 units=km
New Line.245717569$PME8961-3 phases=1 Bus1=242527269.3 Bus2=245717572.3 LineCode=1/0_JCN_1PH_12KV_1 Length=0.001457 units=km
New Line.PME8961-1$245717623 phases=1 Bus1=242527278.1 Bus2=245717626.1 LineCode=1/0_JCN_1PH_12KV_1 Length=0.000909 units=km
New Line.245717825$245717934 phases=1 Bus1=245717936.2 Bus2=245717827.2 LineCode=1/0_JCN_1PH_12KV_1 Length=0.074508 units=km
New Line.J158A-2P$ND205367001 phases=3 Bus1=205367001.1.2.3 Bus2=205366599.1.2.3 LineCode=350_JCN_3PH_12KV_3 Length=0.26087 units=km
New Line.205367021$ND205367001 phases=2 Bus1=205367001.1.2 Bus2=205367023.1.2 LineCode=1/0_JCN_2PH_12KV_2 Length=0.128445 units=km
New Line.GS8080-2$RCS7823-2 phases=3 Bus1=201251266.1.2.3 Bus2=211960487.1.2.3 LineCode=1000_JCN_3PH_12KV_3 Length=0.507 units=km
New Line.106184277$FC6586-1 phases=1 Bus1=106184280.2 Bus2=106184238.2 LineCode=2_CLP_1PH_12KV_1 Length=0.002445 units=km
New Line.4407251E$57540725 phases=3 Bus1=57474857.1.2.3 Bus2=57540727.1.2.3 LineCode=2_CLP_3PH_12KV_3 Length=0.067754 units=km
New Line.P5714153-1$205367021 phases=2 Bus1=205367024.1.2 Bus2=205365624.1.2 LineCode=1/0_JCN_2PH_12KV_2 Length=0.002648 units=km
New Line.106129029$FC6586-1 phases=1 Bus1=106184239.2 Bus2=106129032.2 LineCode=2_CLP_1PH_12KV_1 Length=0.005633 units=km
New Line.ND106475490$57540725 phases=3 Bus1=57540728.1.2.3 Bus2=106475490.1.2.3 LineCode=2_CLP_3PH_12KV_3 Length=0.01037 units=km
New Line.P5725043-B$211962375 phases=3 Bus1=211962378.1.2.3 Bus2=211961796.1.2.3 LineCode=1/0_JCN_3PH_12KV_3 Length=0.0026 units=km
New Line.213512014$213512051 phases=3 Bus1=213512016.1.2.3 Bus2=213512053.1.2.3 LineCode=1/0_JCN_3PH_12KV_3 Length=0.124625 units=km
New Line.213512289$P5717853-1 phases=3 Bus1=213512292.1.2.3 Bus2=213512220.1.2.3 LineCode=1/0_JCN_3PH_12KV_3 Length=0.001123 units=km
New Line.213512543$P5717852-A phases=3 Bus1=213512546.1.2.3 Bus2=213512456.1.2.3 LineCode=1/0_JCN_3PH_12KV_3 Length=0.001421 units=km
New Line.231182841$P5749696-2 phases=1 Bus1=231181828.2 Bus2=231182844.2 LineCode=1/0_JCN_1PH_12KV_1 Length=0.001947 units=km
New Line.P5749695-A$231182893 phases=1 Bus1=231180942.2 Bus2=231182896.2 LineCode=1/0_JCN_1PH_12KV_1 Length=0.001838 units=km
New Line.231183109$231182811 phases=1 Bus1=231182813.3 Bus2=231183111.3 LineCode=1/0_JCN_1PH_12KV_1 Length=0.170307 units=km
New Line.P5749693-A$231183109 phases=1 Bus1=231180853.3 Bus2=231183112.3 LineCode=1/0_JCN_1PH_12KV_1 Length=0.00242 units=km
New Line.235526739$P5740824-2 phases=1 Bus1=235526668.1 Bus2=235526742.1 LineCode=1/0_JCN_1PH_12KV_1 Length=0.000614 units=km
New Line.P5740823-2$235526860 phases=1 Bus1=235526473.1 Bus2=235526863.1 LineCode=1/0_JCN_1PH_12KV_1 Length=0.001471 units=km
New Line.236959610$236959533 phases=1 Bus1=236959612.3 Bus2=236959535.3 LineCode=1/0_JCN_1PH_12KV_1 Length=0.020245 units=km
New Line.236959585$236959560 phases=1 Bus1=236959587.3 Bus2=236959562.3 LineCode=1/0_JCN_1PH_12KV_1 Length=0.030384 units=km
New Line.236959810$236959860 phases=1 Bus1=236959862.1 Bus2=236959812.1 LineCode=1/0_JCN_1PH_12KV_1 Length=0.078033 units=km
New Line.236959885$236960070 phases=1 Bus1=236959887.1 Bus2=236960072.1 LineCode=1/0_JCN_1PH_12KV_1 Length=0.102335 units=km
New Line.242149267$P5763047-1 phases=1 Bus1=242148322.2 Bus2=242149270.2 LineCode=1/0_JCN_1PH_12KV_1 Length=0.001885 units=km
New Line.242149374$242149413 phases=1 Bus1=242149376.2 Bus2=242149415.2 LineCode=1/0_JCN_1PH_12KV_1 Length=0.139731 units=km
New Line.245717718$245717596 phases=1 Bus1=245717598.2 Bus2=245717721.2 LineCode=1/0_JCN_1PH_12KV_1 Length=0.111378 units=km
New Line.P5717843-1$213512830 phases=3 Bus1=213512833.1.2.3 Bus2=210461451.1.2.3 LineCode=1/0_JCN_3PH_12KV_3 Length=0.001454 units=km
New Line.232511959$232511984 phases=1 Bus1=232511986.1 Bus2=232511961.1 LineCode=1/0_JCN_1PH_12KV_1 Length=0.007773 units=km
New Line.P5740827-B$232511959 phases=1 Bus1=232511806.1 Bus2=232511962.1 LineCode=1/0_JCN_1PH_12KV_1 Length=0.001982 units=km
New Line.236959660$P5749697-1 phases=1 Bus1=236959663.2 Bus2=236959226.2 LineCode=1/0_JCN_1PH_12KV_1 Length=0.001462 units=km
New Line.245717825$P5763086-2 phases=1 Bus1=245717828.2 Bus2=245716374.2 LineCode=1/0_JCN_1PH_12KV_1 Length=0.000114 units=km
New Line.J089-3P$245716845 phases=1 Bus1=245716848.2 Bus2=245716699.2 LineCode=1/0_JCN_1PH_12KV_1 Length=0.001441 units=km
New Line.P5763087-1$245717528 phases=1 Bus1=245717531.1 Bus2=245716956.1 LineCode=1/0_JCN_1PH_12KV_1 Length=0.000518 units=km
New Line.GS8584-3$PME0272-1 phases=3 Bus1=236815246.1.2.3 Bus2=296624764.1.2.3 LineCode=1/0_JCN_3PH_12KV_3 Length=0.117466 units=km
New Line.GS6333-4$ND200403999 phases=3 Bus1=183158001.1.2.3 Bus2=200403999.1.2.3 LineCode=1000_JCN_3PH_12KV_3 Length=0.551463 units=km
New Line.J158A-3P$204902306 phases=2 Bus1=205366591.1.3 Bus2=204902308.1.3 LineCode=1/0_JCN_2PH_12KV_2 Length=0.215096 units=km
New Line.GS7893-2$J158A-1P phases=3 Bus1=205366583.1.2.3 Bus2=205366038.1.2.3 LineCode=350_JCN_3PH_12KV_3 Length=0.146466 units=km
New Line.GS8204-4$GS8080-3 phases=3 Bus1=211960496.1.2.3 Bus2=215158965.1.2.3 LineCode=1000_JCN_3PH_12KV_3 Length=0.344849 units=km
New Line.ND106475490$57540715 phases=3 Bus1=106475490.1.2.3 Bus2=57540718.1.2.3 LineCode=2_CLP_3PH_12KV_3 Length=0.00894 units=km
New Line.57540735$ND106475490 phases=3 Bus1=106475490.1.2.3 Bus2=57540738.1.2.3 LineCode=2_CLP_3PH_12KV_3 Length=0.006938 units=km
New Line.ND200403999$GS6334-4 phases=3 Bus1=200403999.1.2.3 Bus2=106182518.1.2.3 LineCode=1000_JCN_3PH_12KV_3 Length=0.427107 units=km
New Line.GS7947-4$GS8080-4 phases=3 Bus1=211960505.1.2.3 Bus2=211960670.1.2.3 LineCode=1000_JCN_3PH_12KV_3 Length=0.226956 units=km
New Line.245717691$245717623 phases=1 Bus1=245717625.1 Bus2=245717694.1 LineCode=1/0_JCN_1PH_12KV_1 Length=0.122636 units=km
New Line.245717733$245717569 phases=1 Bus1=245717571.3 Bus2=245717736.3 LineCode=1/0_JCN_1PH_12KV_1 Length=0.098162 units=km
New Line.P5717855-1$213512051 phases=3 Bus1=213512054.1.2.3 Bus2=213511430.1.2.3 LineCode=1/0_JCN_3PH_12KV_3 Length=0.001331 units=km
New Line.231182893$231182841 phases=1 Bus1=231182895.2 Bus2=231182843.2 LineCode=1/0_JCN_1PH_12KV_1 Length=0.008539 units=km
New Line.235526739$235526791 phases=1 Bus1=235526741.1 Bus2=235526793.1 LineCode=1/0_JCN_1PH_12KV_1 Length=0.013624 units=km
New Line.235526830$235526860 phases=1 Bus1=235526862.1 Bus2=235526832.1 LineCode=1/0_JCN_1PH_12KV_1 Length=0.135846 units=km
New Line.236959560$P5771885-1 phases=1 Bus1=236959563.3 Bus2=236958907.3 LineCode=1/0_JCN_1PH_12KV_1 Length=0.001209 units=km
New Line.236959533$P5771886-1 phases=1 Bus1=236959536.3 Bus2=236958975.3 LineCode=1/0_JCN_1PH_12KV_1 Length=0.001728 units=km
New Line.213794675$GS8584-1 phases=3 Bus1=236815238.1.2.3 Bus2=213794677.1.2.3 LineCode=1/0_JCN_3PH_12KV_3 Length=0.125912 units=km
New Line.106129029$ND236240888 phases=1 Bus1=106129031.2 Bus2=236240888.2 LineCode=2_CLP_1PH_12KV_1 Length=0.012487 units=km
New Line.ND236240888$105609587 phases=1 Bus1=236240888.2 Bus2=105609589.2 LineCode=2_CLP_1PH_12KV_1 Length=0.166818 units=km
New Line.106129049$ND236240888 phases=1 Bus1=236240888.2 Bus2=106129052.2 LineCode=2_CLP_1PH_12KV_1 Length=0.009817 units=km
New Line.204902306$P5712713-1 phases=2 Bus1=204902309.1.3 Bus2=204902265.1.3 LineCode=1/0_JCN_2PH_12KV_2 Length=0.002669 units=km
New Line.57540695$57540715 phases=3 Bus1=57540717.1.2.3 Bus2=57540697.1.2.3 LineCode=2_CLP_3PH_12KV_3 Length=0.151434 units=km
New Line.57540705$57540735 phases=3 Bus1=57540737.1.2.3 Bus2=57540707.1.2.3 LineCode=2_CLP_3PH_12KV_3 Length=0.056502 units=km
New Line.P5771883-1$236959810 phases=1 Bus1=236959813.1 Bus2=236959300.1 LineCode=1/0_JCN_1PH_12KV_1 Length=0.001968 units=km
New Line.236960070$P5771881-2 phases=1 Bus1=236960073.1 Bus2=236959377.1 LineCode=1/0_JCN_1PH_12KV_1 Length=0.002113 units=km
New Line.J052-1P$242149413 phases=1 Bus1=242149416.2 Bus2=242148864.2 LineCode=1/0_JCN_1PH_12KV_1 Length=0.001227 units=km
New Line.242149267$242149299 phases=1 Bus1=242149269.2 Bus2=242149301.2 LineCode=1/0_JCN_1PH_12KV_1 Length=0.016562 units=km
New Line.245715975$245717718 phases=1 Bus1=245717720.2 Bus2=245715977.2 LineCode=1/0_JCN_1PH_12KV_1 Length=0.092147 units=km
New Line.211962325$P5725043-A phases=3 Bus1=211961787.1.2.3 Bus2=211962328.1.2.3 LineCode=1/0_JCN_3PH_12KV_3 Length=0.001977 units=km
New Line.P5717852-B$213512570 phases=3 Bus1=213512465.1.2.3 Bus2=213512573.1.2.3 LineCode=1/0_JCN_3PH_12KV_3 Length=0.001739 units=km
New Line.PME8303-1$213794675 phases=3 Bus1=213794678.1.2.3 Bus2=213794600.1.2.3 LineCode=1/0_JCN_3PH_12KV_3 Length=0.001741 units=km
New Line.PME0272-2$P5756121-1 phases=3 Bus1=296624755.1.2.3 Bus2=236815390.1.2.3 LineCode=1/0_JCN_3PH_12KV_3 Length=0.047418 units=km
New Line.106129049$105609620 phases=1 Bus1=106129062.2 Bus2=105609622.2 LineCode=2_CLP_1PH_12KV_1 Length=0.080117 units=km
New Line.105609587$P5602737-1 phases=1 Bus1=105609590.2 Bus2=106128904.2 LineCode=2_CLP_1PH_12KV_1 Length=0.003581 units=km
New Line.GS7893-1$GS7892-6 phases=3 Bus1=205366029.1.2.3 Bus2=205365805.1.2.3 LineCode=350_JCN_3PH_12KV_3 Length=0.149835 units=km
New Line.GS8204-3$ND215159066 phases=3 Bus1=215158957.1.2.3 Bus2=215159066.1.2.3 LineCode=1/0_JCN_3PH_12KV_3 Length=0.11493 units=km
New Line.GS7893-3$237196455 phases=2 Bus1=205366047.1.3 Bus2=237196458.1.3 LineCode=1/0_JCN_2PH_12KV_2 Length=0.004093 units=km
New Line.57540695$P5492882-1 phases=3 Bus1=57540698.1.2.3 Bus2=57474873.1.2.3 LineCode=2_CLP_3PH_12KV_3 Length=0.004119 units=km
New Line.57540705$P5492880-1 phases=3 Bus1=57540708.1.2.3 Bus2=57474921.1.2.3 LineCode=2_CLP_3PH_12KV_3 Length=0.002411 units=km
New Line.FPS6545-1$ND215159066 phases=2 Bus1=215159066.1.2 Bus2=105011404.1.2 LineCode=2_CLP_2PH_12KV_2 Length=0.026493 units=km
New Line.ND143902132$ND215159066 phases=3 Bus1=215159066.1.2.3 Bus2=143902132.1.2.3 LineCode=2_CLP_3PH_12KV_3 Length=0.411801 units=km
New Line.GS8067-2$GS7947-3 phases=3 Bus1=211960661.1.2.3 Bus2=211961094.1.2.3 LineCode=1000_JCN_3PH_12KV_3 Length=0.65253 units=km
New Line.GS7893-4$237196482 phases=2 Bus1=205366056.2.3 Bus2=237196485.2.3 LineCode=1/0_JCN_2PH_12KV_2 Length=0.004228 units=km
New Line.GS8204-2$ND242148118 phases=3 Bus1=215158941.1.2.3 Bus2=242148118.1.2.3 LineCode=1/0_JCN_3PH_12KV_3 Length=0.038028 units=km
New Line.ND143902132$FPS6547-1 phases=2 Bus1=143902132.1.3 Bus2=105011314.1.3 LineCode=2_CLP_2PH_12KV_2 Length=0.425137 units=km
New Line.PME6546-1$ND143902132 phases=2 Bus1=143902132.2.3 Bus2=105011359.2.3 LineCode=2_CLP_2PH_12KV_2 Length=0.065976 units=km
New Line.105609620$P5602738-1 phases=1 Bus1=105609623.2 Bus2=106128576.2 LineCode=2_CLP_1PH_12KV_1 Length=0.002105 units=km
New Line.J159A-1P$237196455 phases=2 Bus1=237196457.1.3 Bus2=204901851.1.3 LineCode=1/0_JCN_2PH_12KV_2 Length=0.092243 units=km
New Line.PME8220-2$GS7947-2 phases=3 Bus1=211960652.1.2.3 Bus2=214747536.1.2.3 LineCode=1000_JCN_3PH_12KV_3 Length=0.51287 units=km
New Line.GS8204-1$GS8205-4 phases=3 Bus1=215158949.1.2.3 Bus2=215158828.1.2.3 LineCode=1000_JCN_3PH_12KV_3 Length=0.311626 units=km
New Line.ND242148118$215159274 phases=3 Bus1=242148118.1.2.3 Bus2=215159276.1.2.3 LineCode=1/0_JCN_3PH_12KV_3 Length=0.069387 units=km
New Line.ND242148118$242148125 phases=3 Bus1=242148118.1.2.3 Bus2=242148127.1.2.3 LineCode=1/0_JCN_3PH_12KV_3 Length=0.008794 units=km
New Line.FPS6545-1$ND143902445 phases=2 Bus1=105011405.1.2 Bus2=143902445.1.2 LineCode=2_CLP_2PH_12KV_2 Length=0.008604 units=km
New Line.204902114$237196482 phases=2 Bus1=237196484.2.3 Bus2=204902116.2.3 LineCode=1/0_JCN_2PH_12KV_2 Length=0.138665 units=km
New Line.PME8303-2$213794721 phases=3 Bus1=213794591.1.2.3 Bus2=213794724.1.2.3 LineCode=1/0_JCN_3PH_12KV_3 Length=0.002128 units=km
New Line.GS7947-1$237196340 phases=3 Bus1=211960643.1.2.3 Bus2=237196343.1.2.3 LineCode=1/0_JCN_3PH_12KV_3 Length=0.004294 units=km
New Line.237196509$GS7893-6 phases=3 Bus1=205366074.1.2.3 Bus2=237196512.1.2.3 LineCode=1/0_JCN_3PH_12KV_3 Length=0.004951 units=km
New Line.105012578$ND143902445 phases=2 Bus1=143902445.1.2 Bus2=105012580.1.2 LineCode=2_CLP_2PH_12KV_2 Length=0.043668 units=km
New Line.PME6546-1$105012759 phases=2 Bus1=105011360.2.3 Bus2=105012761.2.3 LineCode=2_CLP_2PH_12KV_2 Length=0.01821 units=km
New Line.FPS6547-1$105012937 phases=2 Bus1=105011315.1.3 Bus2=105012939.1.3 LineCode=2_CLP_2PH_12KV_2 Length=0.03548 units=km
New Line.242465000$245717733 phases=1 Bus1=245717735.3 Bus2=242465002.3 LineCode=1/0_JCN_1PH_12KV_1 Length=0.032586 units=km
New Line.PME8947-2$ND242527694 phases=3 Bus1=242527525.1.2.3 Bus2=242527694.1.2.3 LineCode=1000_JCN_3PH_12KV_3 Length=0.021514 units=km
New Line.245715890$245717691 phases=1 Bus1=245717693.1 Bus2=245715892.1 LineCode=1/0_JCN_1PH_12KV_1 Length=0.066472 units=km
New Line.P5727674-1$242148125 phases=3 Bus1=242148128.1.2.3 Bus2=215159153.1.2.3 LineCode=1/0_JCN_3PH_12KV_3 Length=0.002059 units=km
New Line.215159274$P5727675-1 phases=3 Bus1=215159277.1.2.3 Bus2=215159203.1.2.3 LineCode=1/0_JCN_3PH_12KV_3 Length=0.002393 units=km
New Line.ND143902445$242149537 phases=2 Bus1=143902445.1.2 Bus2=242149539.1.2 LineCode=2_CLP_2PH_12KV_2 Length=0.020508 units=km
New Line.204902114$P5712709-1 phases=2 Bus1=204902117.2.3 Bus2=204902070.2.3 LineCode=1/0_JCN_2PH_12KV_2 Length=0.003347 units=km
New Line.204902389$213794721 phases=3 Bus1=213794723.1.2.3 Bus2=204902391.1.2.3 LineCode=1/0_JCN_3PH_12KV_3 Length=0.032358 units=km
New Line.GS8067-1$J263-3P phases=3 Bus1=211961085.1.2.3 Bus2=211961239.1.2.3 LineCode=1/0_JCN_3PH_12KV_3 Length=0.030346 units=km
New Line.237196340$ND213510713 phases=3 Bus1=237196342.1.2.3 Bus2=213510713.1.2.3 LineCode=1/0_JCN_3PH_12KV_3 Length=0.25851 units=km
New Line.231182134$PME8220-3 phases=3 Bus1=214747518.1.2.3 Bus2=231182137.1.2.3 LineCode=1/0_JCN_3PH_12KV_3 Length=0.003017 units=km
New Line.GS8583-3$237196509 phases=3 Bus1=237196511.1.2.3 Bus2=236814320.1.2.3 LineCode=1/0_JCN_3PH_12KV_3 Length=0.368859 units=km
New Line.105012937$P5600751-1 phases=2 Bus1=105012940.1.3 Bus2=105011246.1.3 LineCode=2_CLP_2PH_12KV_2 Length=0.002259 units=km
New Line.105012759$P5600743-2 phases=2 Bus1=105012762.2.3 Bus2=105011804.2.3 LineCode=2_CLP_2PH_12KV_2 Length=0.003452 units=km
New Line.P5600736-1$242149537 phases=2 Bus1=242149540.1.2 Bus2=105011999.1.2 LineCode=2_CLP_2PH_12KV_2 Length=0.002249 units=km
New Line.105012578$P5600706-1 phases=2 Bus1=105012581.1.2 Bus2=105012067.1.2 LineCode=2_CLP_2PH_12KV_2 Length=0.001149 units=km
New Line.235526830$P5740825-B phases=1 Bus1=235526833.1 Bus2=235526561.1 LineCode=1/0_JCN_1PH_12KV_1 Length=0.001558 units=km
New Line.P5740825-A$235526791 phases=1 Bus1=235526794.1 Bus2=235526569.1 LineCode=1/0_JCN_1PH_12KV_1 Length=0.001576 units=km
New Line.242149299$P5763048-2 phases=1 Bus1=242149302.2 Bus2=242148399.2 LineCode=1/0_JCN_1PH_12KV_1 Length=0.002272 units=km
New Line.P5763101-1$245715975 phases=1 Bus1=245715978.2 Bus2=242464232.2 LineCode=1/0_JCN_1PH_12KV_1 Length=0.000918 units=km
New Line.ND242527694$242527796 phases=2 Bus1=242527694.1.2 Bus2=242527798.1.2 LineCode=1/0_JCN_2PH_12KV_2 Length=0.053478 units=km
New Line.P5763087-2$245717487 phases=1 Bus1=245716965.1 Bus2=245717490.1 LineCode=1/0_JCN_1PH_12KV_1 Length=0.0009 units=km
New Line.GS8635-1$ND242527694 phases=3 Bus1=242527694.1.2.3 Bus2=247055515.1.2.3 LineCode=1000_JCN_3PH_12KV_3 Length=0.186607 units=km
New Line.211962300$211962325 phases=3 Bus1=211962327.1.2.3 Bus2=211962302.1.2.3 LineCode=1/0_JCN_3PH_12KV_3 Length=0.012927 units=km