! OpenDSS script generated from multiconductor network
Clear

New Circuit.mc_network basekv=16.0 pu=1.000000 angle=0.00 frequency=60.0 phases=3 Mvasc3=255987 Mvasc1=85329.1
~ bus1=-8888882180686.1.2.3

! Line codes
New LineCode.1000_JCN_3PH_16KV_3 nphases=3 units=km Rmatrix=[ 0.042532 | 0 0.042532 | 0 0 0.042532 ] Xmatrix=[ 0.064381 | 0 0.064381 | 0 0 0.064381 ] Cmatrix=[ 0 | 0 0 | 0 0 0 ]
New LineCode.1/0_CLP_1PH_16KV_1 nphases=1 units=km Rmatrix=[ 0.096624 ] Xmatrix=[ 0.029533 ] Cmatrix=[ 0 ]
New LineCode.2_AL_2PH_16KV_2 nphases=2 units=km Rmatrix=[ 0.003788 | 0 0.003788 ] Xmatrix=[ 0.000798 | 0 0.000798 ] Cmatrix=[ 0 | 0 0 ]
New LineCode.1/0_CLP_2PH_16KV_2 nphases=2 units=km Rmatrix=[ 0.002262 | 0 0.002262 ] Xmatrix=[ 0.000691 | 0 0.000691 ] Cmatrix=[ 0 | 0 0 ]
New LineCode.1/0_CLP_3PH_16KV_3 nphases=3 units=km Rmatrix=[ 0.021681 | 0 0.021681 | 0 0 0.021681 ] Xmatrix=[ 0.006627 | 0 0.006627 | 0 0 0.006627 ] Cmatrix=[ 0 | 0 0 | 0 0 0 ]
New LineCode.1/0_AL_1PH_16KV_1 nphases=1 units=km Rmatrix=[ 0.001345 ] Xmatrix=[ 0.000411 ] Cmatrix=[ 0 ]
New LineCode.2_CLP_3PH_16KV_3 nphases=3 units=km Rmatrix=[ 0.00166 | 0 0.00166 | 0 0 0.00166 ] Xmatrix=[ 0.00035 | 0 0.00035 | 0 0 0.00035 ] Cmatrix=[ 0 | 0 0 | 0 0 0 ]
New LineCode.1/0_AL_2PH_16KV_2 nphases=2 units=km Rmatrix=[ 0.001144 | 0 0.001144 ] Xmatrix=[ 0.00035 | 0 0.00035 ] Cmatrix=[ 0 | 0 0 ]
New LineCode.2_CLP_1PH_16KV_1 nphases=1 units=km Rmatrix=[ 0.152424 ] Xmatrix=[ 0.032128 ] Cmatrix=[ 0 ]
New LineCode.__1PH_16KV_1 nphases=1 units=km Rmatrix=[ 1e-05 ] Xmatrix=[ 1e-05 ] Cmatrix=[ 0 ]
New LineCode.750_AL_1PH_16KV_1 nphases=1 units=km Rmatrix=[ 0.008485 ] Xmatrix=[ 0.010421 ] Cmatrix=[ 0 ]
New LineCode.2_AL_3PH_16KV_3 nphases=3 units=km Rmatrix=[ 0.220501 | 0 0.220501 | 0 0 0.220501 ] Xmatrix=[ 0.046477 | 0 0.046477 | 0 0 0.046477 ] Cmatrix=[ 0 | 0 0 | 0 0 0 ]
New LineCode.653_ACSR_3PH_16KV_3 nphases=3 units=km Rmatrix=[ 0.019892 | 0 0.019892 | 0 0 0.019892 ] Xmatrix=[ 0.077224 | 0 0.077224 | 0 0 0.077224 ] Cmatrix=[ 0 | 0 0 | 0 0 0 ]
New LineCode.4_ACSR_3PH_16KV_3 nphases=3 units=km Rmatrix=[ 0.131513 | 0 0.131513 | 0 0 0.131513 ] Xmatrix=[ 0.048258 | 0 0.048258 | 0 0 0.048258 ] Cmatrix=[ 0 | 0 0 | 0 0 0 ]
New LineCode.653_ACSR_3PH_653_ACSR_N_16KV_4 nphases=4 units=km Rmatrix=[ 0.004032 | 0 0.004032 | 0 0 0.004032 | 0 0 0 0.004032 ] Xmatrix=[ 0.01371 | 0 0.01371 | 0 0 0.01371 | 0 0 0 0.01371 ] Cmatrix=[ 0 | 0 0 | 0 0 0 | 0 0 0 0 ]
New LineCode.1/0_ACSR_3PH_1/0_ACSR_N_16KV_4 nphases=4 units=km Rmatrix=[ 0.026278 | 0 0.026278 | 0 0 0.026278 | 0 0 0 0.026278 ] Xmatrix=[ 0.018991 | 0 0.018991 | 0 0 0.018991 | 0 0 0 0.018991 ] Cmatrix=[ 0 | 0 0 | 0 0 0 | 0 0 0 0 ]
New LineCode.1/0_ACSR_3PH_16KV_3 nphases=3 units=km Rmatrix=[ 0.03129 | 0 0.03129 | 0 0 0.03129 ] Xmatrix=[ 0.024913 | 0 0.024913 | 0 0 0.024913 ] Cmatrix=[ 0 | 0 0 | 0 0 0 ]
New LineCode.1/0_ACSR_2PH_1/0_ACSR_N_16KV_3_N nphases=3 units=km Rmatrix=[ 0.029845 | 0 0.029845 | 0 0 0.029845 ] Xmatrix=[ 0.021569 | 0 0.021569 | 0 0 0.021569 ] Cmatrix=[ 0 | 0 0 | 0 0 0 ]
New LineCode.4_ACSR_2PH_16KV_2 nphases=2 units=km Rmatrix=[ 0.131517 | 0 0.131517 ] Xmatrix=[ 0.048259 | 0 0.048259 ] Cmatrix=[ 0 | 0 0 ]
New LineCode.1/0_ACSR_2PH_16KV_2 nphases=2 units=km Rmatrix=[ 0.037329 | 0 0.037329 ] Xmatrix=[ 0.029721 | 0 0.029721 ] Cmatrix=[ 0 | 0 0 ]
New LineCode.2_ACSR_2PH_2_ACSR_N_16KV_3_N nphases=3 units=km Rmatrix=[ 0.012333 | 0 0.012333 | 0 0 0.012333 ] Xmatrix=[ 0.005975 | 0 0.005975 | 0 0 0.005975 ] Cmatrix=[ 0 | 0 0 | 0 0 0 ]
New LineCode.2_CU_3PH_2_CU_N_16KV_4 nphases=4 units=km Rmatrix=[ 0.002189 | 0 0.002189 | 0 0 0.002189 | 0 0 0 0.002189 ] Xmatrix=[ 0.001607 | 0 0.001607 | 0 0 0.001607 | 0 0 0 0.001607 ] Cmatrix=[ 0 | 0 0 | 0 0 0 | 0 0 0 0 ]
New LineCode.2_CU_2PH_2_CU_N_16KV_3_N nphases=3 units=km Rmatrix=[ 0.002185 | 0 0.002185 | 0 0 0.002185 ] Xmatrix=[ 0.001604 | 0 0.001604 | 0 0 0.001604 ] Cmatrix=[ 0 | 0 0 | 0 0 0 ]
New LineCode.336_ACSR_3PH_16KV_3 nphases=3 units=km Rmatrix=[ 0.005781 | 0 0.005781 | 0 0 0.005781 ] Xmatrix=[ 0.012946 | 0 0.012946 | 0 0 0.012946 ] Cmatrix=[ 0 | 0 0 | 0 0 0 ]
New LineCode.336_ACSR_2PH_16KV_2 nphases=2 units=km Rmatrix=[ 0.000464 | 0 0.000464 ] Xmatrix=[ 0.00104 | 0 0.00104 ] Cmatrix=[ 0 | 0 0 ]
New LineCode.2_ACSR_3PH_16KV_3 nphases=3 units=km Rmatrix=[ 0.007966 | 0 0.007966 | 0 0 0.007966 ] Xmatrix=[ 0.004282 | 0 0.004282 | 0 0 0.004282 ] Cmatrix=[ 0 | 0 0 | 0 0 0 ]
New LineCode.2_CU_1PH_16KV_1 nphases=1 units=km Rmatrix=[ 1e-05 ] Xmatrix=[ 1e-05 ] Cmatrix=[ 0 ]
New LineCode.336_ATW_3PH_16KV_3 nphases=3 units=km Rmatrix=[ 1e-05 | 0 1e-05 | 0 0 1e-05 ] Xmatrix=[ 1e-05 | 0 1e-05 | 0 0 1e-05 ] Cmatrix=[ 0 | 0 0 | 0 0 0 ]
New LineCode.1000_CLP_3PH_16KV_3 nphases=3 units=km Rmatrix=[ 0.011686 | 0 0.011686 | 0 0 0.011686 ] Xmatrix=[ 0.017688 | 0 0.017688 | 0 0 0.017688 ] Cmatrix=[ 0 | 0 0 | 0 0 0 ]
New LineCode.750_AL_2PH_16KV_2 nphases=2 units=km Rmatrix=[ 0.006668 | 0 0.006668 ] Xmatrix=[ 0.00819 | 0 0.00819 ] Cmatrix=[ 0 | 0 0 ]
New LineCode.750_AL_3PH_16KV_3 nphases=3 units=km Rmatrix=[ 0.000494 | 0 0.000494 | 0 0 0.000494 ] Xmatrix=[ 0.000607 | 0 0.000607 | 0 0 0.000607 ] Cmatrix=[ 0 | 0 0 | 0 0 0 ]
New LineCode.653_ACSR_2PH_16KV_2 nphases=2 units=km Rmatrix=[ 0.000434 | 0 0.000434 ] Xmatrix=[ 0.001685 | 0 0.001685 ] Cmatrix=[ 0 | 0 0 ]
New LineCode.653_ACSR_1PH_653_ACSR_N_16KV_3_N nphases=3 units=km Rmatrix=[ 0.000452 | 0 0.000452 | 0 0 0.000452 ] Xmatrix=[ 0.001535 | 0 0.001535 | 0 0 0.001535 ] Cmatrix=[ 0 | 0 0 | 0 0 0 ]
New LineCode.UNK_UNK_3PH_16KV_3 nphases=3 units=km Rmatrix=[ 0.004301 | 0 0.004301 | 0 0 0.004301 ] Xmatrix=[ 0.001314 | 0 0.001314 | 0 0 0.001314 ] Cmatrix=[ 0 | 0 0 | 0 0 0 ]

! Lines
New Line.12131$ND182311344 phases=3 Bus1=-8888882180686.1.2.3 Bus2=182311344.1.2.3 LineCode=1000_JCN_3PH_16KV_3 Length=0.502519 units=km
New Line.303435560$P5024834-1 phases=1 Bus1=303435563.1 Bus2=158792484.1 LineCode=1/0_CLP_1PH_16KV_1 Length=0.001196 units=km
New Line.181263090$P5538315-1 phases=2 Bus1=181263093.2.3 Bus2=182877594.2.3 LineCode=2_AL_2PH_16KV_2 Length=0.00407 units=km
New Line.FD35149$233902792 phases=2 Bus1=12317419.1.3 Bus2=233902794.1.3 LineCode=1/0_CLP_2PH_16KV_2 Length=0.12038 units=km
New Line.P5024194-1$P5024195-2 phases=2 Bus1=12317201.1.3 Bus2=12316748.1.3 LineCode=1/0_CLP_2PH_16KV_2 Length=0.123627 units=km
New Line.2279230E$P5026903-1 phases=3 Bus1=12317936.1.2.3 Bus2=12317891.1.2.3 LineCode=1/0_CLP_3PH_16KV_3 Length=0.060226 units=km
New Line.169896786$P5024419-1 phases=2 Bus1=169896789.2.3 Bus2=169896714.2.3 LineCode=1/0_CLP_2PH_16KV_2 Length=0.001192 units=km
New Line.181263102$P5538315-2 phases=2 Bus1=181263105.2.3 Bus2=182877603.2.3 LineCode=2_AL_2PH_16KV_2 Length=0.003723 units=km
New Line.FD35160$186041924 phases=1 Bus1=12317438.2 Bus2=186041926.2 LineCode=1/0_AL_1PH_16KV_1 Length=0.501914 units=km
New Line.P5350109-2$83321244 phases=2 Bus1=83321052.1.3 Bus2=83321247.1.3 LineCode=1/0_CLP_2PH_16KV_2 Length=0.006036 units=km
New Line.FD35161$P5538514-A phases=1 Bus1=12317457.3 Bus2=12324024.3 LineCode=1/0_AL_1PH_16KV_1 Length=0.153583 units=km
New Line.233902792$P5024420-B phases=2 Bus1=233902795.1.3 Bus2=12325592.1.3 LineCode=1/0_CLP_2PH_16KV_2 Length=0.001056 units=km
New Line.1364507E$196394683 phases=3 Bus1=12349556.1.2.3 Bus2=196394685.1.2.3 LineCode=2_CLP_3PH_16KV_3 Length=0.091628 units=km
New Line.186041924$P5024721-2 phases=1 Bus1=186041927.2 Bus2=186041978.2 LineCode=1/0_AL_1PH_16KV_1 Length=0.001901 units=km
New Line.83321244$83322050 phases=2 Bus1=83321246.1.3 Bus2=83322052.1.3 LineCode=1/0_CLP_2PH_16KV_2 Length=0.089868 units=km
New Line.P5024195-1$P5024425-A phases=2 Bus1=12316739.1.3 Bus2=12325660.1.3 LineCode=1/0_CLP_2PH_16KV_2 Length=0.138792 units=km
New Line.196394683$P5509903-1 phases=3 Bus1=196394686.1.2.3 Bus2=12349572.1.2.3 LineCode=2_CLP_3PH_16KV_3 Length=0.00149 units=km
New Line.FD35162$ND12352438 phases=2 Bus1=12317476.1.3 Bus2=12352438.1.3 LineCode=1/0_CLP_2PH_16KV_2 Length=0.059998 units=km
New Line.P5024419-2$169896813 phases=2 Bus1=169896723.2.3 Bus2=169896816.2.3 LineCode=1/0_CLP_2PH_16KV_2 Length=0.002252 units=km
New Line.P5024720-1$P5538514-B phases=1 Bus1=12324015.3 Bus2=12319464.3 LineCode=1/0_AL_1PH_16KV_1 Length=0.09909 units=km
New Line.ND12352438$179721715 phases=2 Bus1=12352438.1.3 Bus2=179721717.1.3 LineCode=1/0_CLP_2PH_16KV_2 Length=0.062507 units=km
New Line.P5024420-A$233902819 phases=2 Bus1=12325583.1.3 Bus2=233902822.1.3 LineCode=1/0_CLP_2PH_16KV_2 Length=0.118593 units=km
New Line.83322050$P5350108-1 phases=2 Bus1=83322053.1.3 Bus2=83321716.1.3 LineCode=1/0_CLP_2PH_16KV_2 Length=0.003017 units=km
New Line.169896813$P5024418-A phases=2 Bus1=169896815.2.3 Bus2=12325208.2.3 LineCode=1/0_CLP_2PH_16KV_2 Length=0.116145 units=km
New Line.186041912$P5024721-1 phases=1 Bus1=186041969.2 Bus2=186041915.2 LineCode=1/0_AL_1PH_16KV_1 Length=0.001836 units=km
New Line.FD35163$P5024520-A phases=2 Bus1=12317495.1.2 Bus2=242445652.1.2 LineCode=1/0_AL_2PH_16KV_2 Length=0.160304 units=km
New Line.P5024425-B$P5024424-2 phases=2 Bus1=12325669.2.3 Bus2=101772467.2.3 LineCode=1/0_CLP_2PH_16KV_2 Length=0.109389 units=km
New Line.179721715$P5627678-2 phases=2 Bus1=179721718.1.3 Bus2=179721647.1.3 LineCode=1/0_CLP_2PH_16KV_2 Length=0.001916 units=km
New Line.233902819$232104020 phases=2 Bus1=233902821.1.3 Bus2=232104022.1.3 LineCode=1/0_CLP_2PH_16KV_2 Length=0.165851 units=km
New Line.P5024722-1$186041912 phases=1 Bus1=186041914.2 Bus2=12323867.2 LineCode=1/0_AL_1PH_16KV_1 Length=0.07654 units=km
New Line.83322076$P5350108-2 phases=2 Bus1=83321725.1.3 Bus2=83322079.1.3 LineCode=1/0_CLP_2PH_16KV_2 Length=0.003198 units=km
New Line.P5024521-2$P5024520-B phases=2 Bus1=242445644.1.2 Bus2=109112040.1.2 LineCode=1/0_AL_2PH_16KV_2 Length=0.126932 units=km
New Line.P5024418-B$P5024422-B phases=2 Bus1=12325199.2.3 Bus2=12325122.2.3 LineCode=1/0_CLP_2PH_16KV_2 Length=0.154488 units=km
New Line.FD35164$P5024376-A phases=2 Bus1=12317514.1.2 Bus2=141214535.1.2 LineCode=2_AL_2PH_16KV_2 Length=0.108905 units=km
New Line.232104020$P5024421-1 phases=2 Bus1=232104023.1.3 Bus2=232103947.1.3 LineCode=1/0_CLP_2PH_16KV_2 Length=0.002707 units=km
New Line.P5024423-2$P5024424-1 phases=2 Bus1=101772458.2.3 Bus2=12317138.2.3 LineCode=1/0_CLP_2PH_16KV_2 Length=0.121289 units=km
New Line.P5356782-2$83322076 phases=2 Bus1=83322078.1.3 Bus2=12317602.1.3 LineCode=1/0_CLP_2PH_16KV_2 Length=0.078126 units=km
New Line.179721740$P5627678-1 phases=2 Bus1=179721638.1.3 Bus2=179721743.1.3 LineCode=1/0_CLP_2PH_16KV_2 Length=0.118796 units=km
New Line.FD35165$ND106860582 phases=2 Bus1=12317533.1.2 Bus2=106860582.1.2 LineCode=1/0_AL_2PH_16KV_2 Length=0.05515 units=km
New Line.P5024722-2$P5024723-B phases=1 Bus1=12323876.2 Bus2=12316158.2 LineCode=1/0_AL_1PH_16KV_1 Length=0.097336 units=km
New Line.ND106860582$P5568488-1 phases=1 Bus1=106860582.2 Bus2=106860511.2 LineCode=2_CLP_1PH_16KV_1 Length=0.064201 units=km
New Line.P5024423-1$P5024422-A phases=2 Bus1=12325131.2.3 Bus2=12317129.2.3 LineCode=1/0_CLP_2PH_16KV_2 Length=0.125102 units=km
New Line.ND106860582$P5024378-A phases=2 Bus1=106860582.1.2 Bus2=12318934.1.2 LineCode=1/0_AL_2PH_16KV_2 Length=0.063564 units=km
New Line.P5024376-B$P5630296-A phases=2 Bus1=141214526.1.2 Bus2=141214738.1.2 LineCode=2_AL_2PH_16KV_2 Length=0.079139 units=km
New Line.175173982$175173970 phases=1 Bus1=175173984.1 Bus2=175173972.1 LineCode=__1PH_16KV_1 Length=0.053228 units=km
New Line.179721765$179721740 phases=2 Bus1=179721742.1.3 Bus2=179721767.1.3 LineCode=1/0_CLP_2PH_16KV_2 Length=0.123308 units=km
New Line.P5024521-1$179721815 phases=2 Bus1=109112031.1.2 Bus2=179721817.1.2 LineCode=1/0_AL_2PH_16KV_2 Length=0.096372 units=km
New Line.232104047$P5024421-2 phases=2 Bus1=232103956.1.3 Bus2=232104050.1.3 LineCode=1/0_CLP_2PH_16KV_2 Length=0.1915 units=km
New Line.P5356782-1$P5368757-2 phases=2 Bus1=12317593.1.3 Bus2=110787221.1.3 LineCode=1/0_CLP_2PH_16KV_2 Length=0.077815 units=km
New Line.P5469884-1$232104047 phases=2 Bus1=232104049.1.3 Bus2=110787315.1.3 LineCode=1/0_CLP_2PH_16KV_2 Length=0.181306 units=km
New Line.179721815$P5024522T1 phases=2 Bus1=179721818.1.2 Bus2=179721525.1.2 LineCode=1/0_AL_2PH_16KV_2 Length=0.003674 units=km
New Line.P5024523-2$179721765 phases=2 Bus1=179721768.1.3 Bus2=179721574.1.3 LineCode=1/0_CLP_2PH_16KV_2 Length=0.001229 units=km
New Line.P5024378-B$P5024379-A phases=2 Bus1=12318925.1.2 Bus2=12318857.1.2 LineCode=1/0_AL_2PH_16KV_2 Length=0.157107 units=km
New Line.P5630296-B$P5630297-B phases=2 Bus1=141214729.1.2 Bus2=141214625.1.2 LineCode=2_AL_2PH_16KV_2 Length=0.197994 units=km
New Line.P5469884-2$P5368757-1 phases=2 Bus1=110787212.1.3 Bus2=110787324.1.3 LineCode=1/0_CLP_2PH_16KV_2 Length=0.222105 units=km
New Line.P5024522T1$P5024522-2 phases=2 Bus1=179721533.1.3 Bus2=179721469.1.3 LineCode=1/0_CLP_2PH_16KV_2 Length=0.006741 units=km
New Line.179721790$P5024523-1 phases=2 Bus1=179721565.1.3 Bus2=179721793.1.3 LineCode=1/0_CLP_2PH_16KV_2 Length=0.078523 units=km
New Line.P5024379-B$P5574952-2 phases=2 Bus1=12318848.1.2 Bus2=136747435.1.2 LineCode=1/0_AL_2PH_16KV_2 Length=0.221665 units=km
New Line.P5630297-A$P5024203-1 phases=2 Bus1=141214634.1.2 Bus2=141214426.1.2 LineCode=2_AL_2PH_16KV_2 Length=0.079376 units=km
New Line.179721840$179721790 phases=2 Bus1=179721792.1.3 Bus2=179721842.1.3 LineCode=1/0_CLP_2PH_16KV_2 Length=0.181246 units=km
New Line.P5024522-1$179721840 phases=2 Bus1=179721460.1.3 Bus2=179721843.1.3 LineCode=1/0_CLP_2PH_16KV_2 Length=0.001633 units=km
New Line.P5574952-1$181263156 phases=2 Bus1=136747426.1.2 Bus2=181263158.1.2 LineCode=1/0_AL_2PH_16KV_2 Length=0.239101 units=km
New Line.P5024203-2$207551858 phases=2 Bus1=141214435.1.2 Bus2=207551860.1.2 LineCode=2_AL_2PH_16KV_2 Length=0.075018 units=km
New Line.181263156$P5024196-1 phases=2 Bus1=181263159.1.2 Bus2=136747338.1.2 LineCode=1/0_AL_2PH_16KV_2 Length=0.001105 units=km
New Line.207551858$P5024204-1 phases=2 Bus1=207551861.1.2 Bus2=207551786.1.2 LineCode=2_AL_2PH_16KV_2 Length=0.003399 units=km
New Line.181263144$P5024196-2 phases=2 Bus1=136747347.1.2 Bus2=181263147.1.2 LineCode=1/0_AL_2PH_16KV_2 Length=0.000902 units=km
New Line.P5024204-2$207551885 phases=2 Bus1=207551795.1.2 Bus2=207551888.1.2 LineCode=2_AL_2PH_16KV_2 Length=0.003208 units=km
New Line.237651947$207551885 phases=2 Bus1=207551887.1.2 Bus2=237651949.1.2 LineCode=2_AL_2PH_16KV_2 Length=0.172279 units=km
New Line.240859690$181263144 phases=2 Bus1=181263146.1.2 Bus2=240859692.1.2 LineCode=1/0_AL_2PH_16KV_2 Length=0.231033 units=km
New Line.P5024200-B$237651947 phases=2 Bus1=237651950.1.2 Bus2=12318318.1.2 LineCode=2_AL_2PH_16KV_2 Length=0.003867 units=km
New Line.P5024205-B$240859690 phases=2 Bus1=240859693.1.2 Bus2=12318617.1.2 LineCode=1/0_AL_2PH_16KV_2 Length=0.003201 units=km
New Line.P5024200-A$237651974 phases=2 Bus1=12318309.1.2 Bus2=237651977.1.2 LineCode=2_AL_2PH_16KV_2 Length=0.119378 units=km
New Line.P5024205-A$240859717 phases=2 Bus1=12318626.1.2 Bus2=240859720.1.2 LineCode=1/0_AL_2PH_16KV_2 Length=0.209723 units=km
New Line.237651974$P5024201-B phases=2 Bus1=237651976.1.2 Bus2=12316306.1.2 LineCode=2_AL_2PH_16KV_2 Length=0.088224 units=km
New Line.240859717$240859744 phases=2 Bus1=240859719.1.2 Bus2=240859746.1.2 LineCode=1/0_AL_2PH_16KV_2 Length=0.107188 units=km
New Line.B5190207-2$B5627570-2 phases=1 Bus1=12289022.1 Bus2=12289094.1 LineCode=750_AL_1PH_16KV_1 Length=0.075316 units=km
New Line.181263043$P5627693-B phases=2 Bus1=143939555.1.3 Bus2=181263046.1.3 LineCode=1/0_AL_2PH_16KV_2 Length=0.002105 units=km
New Line.FD35124$P5024661-A phases=2 Bus1=12300702.2.3 Bus2=12301388.2.3 LineCode=2_AL_2PH_16KV_2 Length=0.132641 units=km
New Line.B5167987-2$B5167988-2 phases=1 Bus1=12338904.1 Bus2=12338832.1 LineCode=1/0_CLP_1PH_16KV_1 Length=0.118521 units=km
New Line.B5167981-1$B5167980-2 phases=1 Bus1=12317986.2 Bus2=12339183.2 LineCode=1/0_CLP_1PH_16KV_1 Length=0.133559 units=km
New Line.P5537900-2$P5026281-1 phases=1 Bus1=12339327.1 Bus2=12339480.1 LineCode=1/0_CLP_1PH_16KV_1 Length=0.079316 units=km
New Line.B5310685-1$B5310690-2 phases=1 Bus1=12300120.1 Bus2=12299265.1 LineCode=1/0_CLP_1PH_16KV_1 Length=0.137062 units=km
New Line.P5024671-A$181263043 phases=2 Bus1=181263045.1.3 Bus2=12302149.1.3 LineCode=1/0_AL_2PH_16KV_2 Length=0.054806 units=km
New Line.240859744$P5024197-2 phases=2 Bus1=240859747.1.2 Bus2=158792329.1.2 LineCode=1/0_AL_2PH_16KV_2 Length=0.001352 units=km
New Line.158255463$P5024201-A phases=2 Bus1=12316297.1.2 Bus2=158255465.1.2 LineCode=1/0_AL_2PH_16KV_2 Length=0.075693 units=km
New Line.P5024199-2$158255463 phases=2 Bus1=158255466.1.2 Bus2=158255395.1.2 LineCode=1/0_AL_2PH_16KV_2 Length=0.001383 units=km
New Line.P5024197-1$240859771 phases=2 Bus1=158792320.1.2 Bus2=240859774.1.2 LineCode=1/0_AL_2PH_16KV_2 Length=0.116312 units=km
New Line.240859771$P5574955-2 phases=2 Bus1=240859773.1.2 Bus2=158792246.1.2 LineCode=1/0_AL_2PH_16KV_2 Length=0.105151 units=km
New Line.158255490$P5024199-1 phases=2 Bus1=158255386.1.2 Bus2=158255493.1.2 LineCode=1/0_AL_2PH_16KV_2 Length=0.001943 units=km
New Line.P5574955-1$158255490 phases=2 Bus1=158792237.1.2 Bus2=158255492.1.2 LineCode=1/0_AL_2PH_16KV_2 Length=0.119482 units=km
New Line.B5190207-1$B5190208-2 phases=1 Bus1=12289085.1 Bus2=12288014.1 LineCode=750_AL_1PH_16KV_1 Length=0.095025 units=km
New Line.P5024661-B$P5024662-A phases=2 Bus1=12301379.2.3 Bus2=12301465.2.3 LineCode=2_AL_2PH_16KV_2 Length=0.079806 units=km
New Line.B5167988-1$B5189842-1 phases=1 Bus1=12338823.1 Bus2=12338751.1 LineCode=1/0_CLP_1PH_16KV_1 Length=0.068381 units=km
New Line.B5167981-2$B5167984-1 phases=1 Bus1=12339192.2 Bus2=12339039.2 LineCode=1/0_CLP_1PH_16KV_1 Length=0.122341 units=km
New Line.P5537900-1$P5026283-2 phases=1 Bus1=12339471.1 Bus2=12339408.1 LineCode=1/0_CLP_1PH_16KV_1 Length=0.116925 units=km
New Line.P5024671-B$P5024670-B phases=2 Bus1=12302158.1.3 Bus2=12301995.1.3 LineCode=1/0_AL_2PH_16KV_2 Length=0.091187 units=km
New Line.FD35147$187871207 phases=1 Bus1=12317343.2 Bus2=187871209.2 LineCode=1/0_CLP_1PH_16KV_1 Length=0.108974 units=km
New Line.FD35146$P5627691-1 phases=1 Bus1=12317362.1 Bus2=158792401.1 LineCode=1/0_CLP_1PH_16KV_1 Length=0.048638 units=km
New Line.1449871E$P5404056-A phases=3 Bus1=12315325.1.2.3 Bus2=217276439.1.2.3 LineCode=2_AL_3PH_16KV_3 Length=0.196519 units=km
New Line.P5024662-B$P5024663-A phases=2 Bus1=12301456.2.3 Bus2=12301542.2.3 LineCode=2_AL_2PH_16KV_2 Length=0.101003 units=km
New Line.B5189844-1$B5167984-2 phases=1 Bus1=12339048.2 Bus2=12339255.2 LineCode=1/0_CLP_1PH_16KV_1 Length=0.176703 units=km
New Line.P5537895-1$P5026283-1 phases=1 Bus1=12339399.1 Bus2=12339543.1 LineCode=1/0_CLP_1PH_16KV_1 Length=0.121829 units=km
New Line.B5576999-1$B5189842-2 phases=1 Bus1=12338760.1 Bus2=12339615.1 LineCode=1/0_CLP_1PH_16KV_1 Length=0.162154 units=km
New Line.187871207$P5024835-1 phases=1 Bus1=187871210.2 Bus2=187871132.2 LineCode=1/0_CLP_1PH_16KV_1 Length=0.003301 units=km
New Line.P5024670-A$P5024669-B phases=2 Bus1=12302004.1.3 Bus2=12301918.1.3 LineCode=1/0_AL_2PH_16KV_2 Length=0.073847 units=km
New Line.FD35148$P5313823-1 phases=2 Bus1=12317400.2.3 Bus2=12324446.2.3 LineCode=1/0_CLP_2PH_16KV_2 Length=0.243363 units=km
New Line.P5404055-1$P5404056-B phases=2 Bus1=217276422.1.3 Bus2=215305435.1.3 LineCode=2_AL_2PH_16KV_2 Length=0.004692 units=km
New Line.303435510$P5627691-2 phases=1 Bus1=158792410.1 Bus2=303435512.1 LineCode=1/0_CLP_1PH_16KV_1 Length=0.139882 units=km
New Line.P5024663-B$P5024664-A phases=2 Bus1=12301533.2.3 Bus2=12301619.2.3 LineCode=2_AL_2PH_16KV_2 Length=0.166141 units=km
New Line.B5189845-1$B5189844-2 phases=1 Bus1=12339264.2 Bus2=12339687.2 LineCode=1/0_CLP_1PH_16KV_1 Length=0.072598 units=km
New Line.P5026285-2$P5537895-2 phases=1 Bus1=12339552.1 Bus2=12339768.1 LineCode=1/0_CLP_1PH_16KV_1 Length=0.09625 units=km
New Line.187871234$P5024835-2 phases=1 Bus1=187871141.2 Bus2=187871237.2 LineCode=1/0_CLP_1PH_16KV_1 Length=0.078621 units=km
New Line.P5024669-A$P5024666-A phases=2 Bus1=12301927.1.3 Bus2=12302226.1.3 LineCode=1/0_AL_2PH_16KV_2 Length=0.12229 units=km
New Line.P5024375-2$303435510 phases=1 Bus1=303435513.1 Bus2=12324599.1 LineCode=1/0_CLP_1PH_16KV_1 Length=0.001174 units=km
New Line.P5313823-2$P5368389-A phases=2 Bus1=12324455.2.3 Bus2=12325814.2.3 LineCode=1/0_CLP_2PH_16KV_2 Length=0.099264 units=km
New Line.B5027483-2$FD35276 phases=1 Bus1=12326698.1 Bus2=12326438.1 LineCode=1/0_CLP_1PH_16KV_1 Length=0.07662 units=km
New Line.P5024832-1$187871234 phases=1 Bus1=187871236.2 Bus2=12324665.2 LineCode=1/0_CLP_1PH_16KV_1 Length=0.062517 units=km
New Line.P5024664-B$P5024665-A phases=2 Bus1=12301610.2.3 Bus2=12301696.2.3 LineCode=2_AL_2PH_16KV_2 Length=0.076529 units=km
New Line.FD35150$P5601991-A phases=2 Bus1=12317571.1.3 Bus2=12325737.1.3 LineCode=1/0_CLP_2PH_16KV_2 Length=0.054681 units=km
New Line.P5024668-A$P5024666-B phases=2 Bus1=12302235.1.3 Bus2=12301773.1.3 LineCode=1/0_AL_2PH_16KV_2 Length=0.116596 units=km
New Line.FD06115$246352225 phases=2 Bus1=246352130.2.3 Bus2=246352227.2.3 LineCode=1/0_AL_2PH_16KV_2 Length=0.070243 units=km
New Line.P5024375-1$303435535 phases=1 Bus1=12324590.1 Bus2=303435538.1 LineCode=1/0_CLP_1PH_16KV_1 Length=0.238478 units=km
New Line.P5368389-B$83321202 phases=2 Bus1=12325823.1.3 Bus2=83321204.1.3 LineCode=1/0_CLP_2PH_16KV_2 Length=0.015461 units=km
New Line.P5024832-2$P5024833-1 phases=1 Bus1=12324674.2 Bus2=83322117.2 LineCode=1/0_CLP_1PH_16KV_1 Length=0.044926 units=km
New Line.P5601991-B$P5024194-2 phases=2 Bus1=12325746.1.3 Bus2=12317210.1.3 LineCode=1/0_CLP_2PH_16KV_2 Length=0.080619 units=km
New Line.181263090$P5024665-B phases=2 Bus1=12301687.2.3 Bus2=181263092.2.3 LineCode=2_AL_2PH_16KV_2 Length=0.151465 units=km
New Line.246352225$P5766600-1 phases=2 Bus1=246352228.2.3 Bus2=246352181.2.3 LineCode=1/0_AL_2PH_16KV_2 Length=0.001619 units=km
New Line.303435535$303435560 phases=1 Bus1=303435537.1 Bus2=303435562.1 LineCode=1/0_CLP_1PH_16KV_1 Length=0.069792 units=km
New Line.P5350109-1$83321202 phases=2 Bus1=83321205.1.3 Bus2=83321043.1.3 LineCode=1/0_CLP_2PH_16KV_2 Length=0.004148 units=km
New Line.FD35151$169896786 phases=2 Bus1=12317552.2.3 Bus2=169896788.2.3 LineCode=1/0_CLP_2PH_16KV_2 Length=0.034551 units=km
New Line.P5024668-B$181263102 phases=2 Bus1=12301764.2.3 Bus2=181263104.2.3 LineCode=2_AL_2PH_16KV_2 Length=0.045206 units=km
New Line.1364507EI1$ND12351978 phases=3 Bus1=12351978.1.2.3 Bus2=208247779.1.2.3 LineCode=653_ACSR_3PH_16KV_3 Length=0.015153 units=km
New Line.2303833E$ND12352408 phases=3 Bus1=12352408.1.2.3 Bus2=12350140.1.2.3 LineCode=4_ACSR_3PH_16KV_3 Length=0.007369 units=km
New Line.1332421E$ND12352101 phases=3 Bus1=12352101.1.2.3 Bus2=12350154.1.2.3 LineCode=4_ACSR_3PH_16KV_3 Length=0.004215 units=km
New Line.ND12352408$RCS0400 phases=4 Bus1=12352408.0.1.2.3 Bus2=12350507.0.1.2.3 LineCode=653_ACSR_3PH_653_ACSR_N_16KV_4 Length=0.053289 units=km
New Line.1332406E$ND12350901 phases=4 Bus1=12324205.0.1.2.3 Bus2=12350901.0.1.2.3 LineCode=1/0_ACSR_3PH_1/0_ACSR_N_16KV_4 Length=0.04456 units=km
New Line.ND12352101$ND12352939 phases=3 Bus1=12352101.1.2.3 Bus2=12352939.1.2.3 LineCode=4_ACSR_3PH_16KV_3 Length=0.033992 units=km
New Line.ND12352101$ND190650601 phases=3 Bus1=12352101.1.2.3 Bus2=190650601.1.2.3 LineCode=4_ACSR_3PH_16KV_3 Length=0.03164 units=km
New Line.1364506E$1364507EI1 phases=3 Bus1=208247778.1.2.3 Bus2=12300845.1.2.3 LineCode=653_ACSR_3PH_16KV_3 Length=0.061559 units=km
New Line.ND12350901$FD35162 phases=3 Bus1=12350901.1.2.3 Bus2=12317475.1.2.3 LineCode=1/0_ACSR_3PH_16KV_3 Length=0.087212 units=km
New Line.ND12350901$1332409E phases=3 Bus1=12350901.0.1.2 Bus2=12324155.0.1.2 LineCode=1/0_ACSR_2PH_1/0_ACSR_N_16KV_3_N Length=0.08399 units=km
New Line.ND12352939$BF35171 phases=2 Bus1=12352939.2.3 Bus2=12350089.2.3 LineCode=4_ACSR_2PH_16KV_2 Length=0.003302 units=km
New Line.ND190650601$ND12350581 phases=3 Bus1=190650601.1.2.3 Bus2=12350581.1.2.3 LineCode=1/0_ACSR_3PH_16KV_3 Length=0.063102 units=km
New Line.1332421E$1332419E phases=3 Bus1=12350153.1.2.3 Bus2=12324405.1.2.3 LineCode=4_ACSR_3PH_16KV_3 Length=0.085345 units=km
New Line.ND12350581$BF35174 phases=2 Bus1=12350581.2.3 Bus2=12350070.2.3 LineCode=1/0_ACSR_2PH_16KV_2 Length=0.004244 units=km
New Line.1332409E$ND12352232 phases=3 Bus1=12324155.0.1.2 Bus2=12352232.0.1.2 LineCode=1/0_ACSR_2PH_1/0_ACSR_N_16KV_3_N Length=0.043752 units=km
New Line.1364506E$PS0291 phases=3 Bus1=12300845.1.2.3 Bus2=25091536.1.2.3 LineCode=653_ACSR_3PH_16KV_3 Length=0.051169 units=km
New Line.2303833E$ND69739961 phases=3 Bus1=12350141.1.2.3 Bus2=69739961.1.2.3 LineCode=4_ACSR_3PH_16KV_3 Length=0.044977 units=km
New Line.ND69739961$4734506E phases=3 Bus1=69739961.1.2.3 Bus2=12316853.1.2.3 LineCode=1/0_ACSR_3PH_16KV_3 Length=0.025486 units=km
New Line.ND12352232$FD35163 phases=2 Bus1=12352232.1.2 Bus2=12317494.1.2 LineCode=1/0_ACSR_2PH_16KV_2 Length=0.086406 units=km
New Line.BF35171$ND12352537 phases=2 Bus1=12350090.2.3 Bus2=12352537.2.3 LineCode=4_ACSR_2PH_16KV_2 Length=0.001451 units=km
New Line.ND12352232$1444658E phases=3 Bus1=12352232.0.1.2 Bus2=140523539.0.1.2 LineCode=1/0_ACSR_2PH_1/0_ACSR_N_16KV_3_N Length=0.044437 units=km
New Line.1444658E$1443795E phases=3 Bus1=140523539.0.1.2 Bus2=12324130.0.1.2 LineCode=1/0_ACSR_2PH_1/0_ACSR_N_16KV_3_N Length=0.042655 units=km
New Line.ND12352537$1332411E phases=2 Bus1=12352537.2.3 Bus2=12324230.2.3 LineCode=4_ACSR_2PH_16KV_2 Length=0.087252 units=km
New Line.ND12352537$4520913E phases=2 Bus1=12352537.2.3 Bus2=12324330.2.3 LineCode=4_ACSR_2PH_16KV_2 Length=0.128008 units=km
New Line.BF35174$ND12351308 phases=2 Bus1=12350071.2.3 Bus2=12351308.2.3 LineCode=1/0_ACSR_2PH_16KV_2 Length=0.005712 units=km
New Line.ND12351308$1332439E phases=2 Bus1=12351308.2.3 Bus2=12324380.2.3 LineCode=1/0_ACSR_2PH_16KV_2 Length=0.128031 units=km
New Line.1443795E$ND12351329 phases=3 Bus1=12324130.0.1.2 Bus2=12351329.0.1.2 LineCode=1/0_ACSR_2PH_1/0_ACSR_N_16KV_3_N Length=0.042684 units=km
New Line.ND12351308$4520914E phases=2 Bus1=12351308.2.3 Bus2=181941748.2.3 LineCode=1/0_ACSR_2PH_16KV_2 Length=0.0015 units=km
New Line.1332411E$1443790E phases=2 Bus1=12324230.2.3 Bus2=214953796.2.3 LineCode=4_ACSR_2PH_16KV_2 Length=0.16831 units=km
New Line.ND12351329$FD35164 phases=3 Bus1=12351329.0.1.2 Bus2=12317513.0.1.2 LineCode=2_ACSR_2PH_2_ACSR_N_16KV_3_N Length=0.085362 units=km
New Line.ND12351329$1443793E phases=3 Bus1=12351329.0.1.2 Bus2=12324105.0.1.2 LineCode=1/0_ACSR_2PH_1/0_ACSR_N_16KV_3_N Length=0.042679 units=km
New Line.4520914E$1332434E phases=2 Bus1=181941748.2.3 Bus2=168918043.2.3 LineCode=1/0_ACSR_2PH_16KV_2 Length=0.061341 units=km
New Line.1443793E$1443792E phases=3 Bus1=12324105.0.1.2 Bus2=12324305.0.1.2 LineCode=1/0_ACSR_2PH_1/0_ACSR_N_16KV_3_N Length=0.042672 units=km
New Line.1332434E$1332433E phases=2 Bus1=168918043.2.3 Bus2=12324355.2.3 LineCode=1/0_ACSR_2PH_16KV_2 Length=0.042665 units=km
New Line.1443790E$4650209E phases=2 Bus1=214953797.2.3 Bus2=136747617.2.3 LineCode=4_ACSR_2PH_16KV_2 Length=0.055462 units=km
New Line.4650209E$1443787E phases=2 Bus1=136747617.2.3 Bus2=102644618.2.3 LineCode=4_ACSR_2PH_16KV_2 Length=0.044578 units=km
New Line.1443792E$FD35165 phases=3 Bus1=12324305.0.1.2 Bus2=12317532.0.1.2 LineCode=1/0_ACSR_2PH_1/0_ACSR_N_16KV_3_N Length=0.042645 units=km
New Line.1443787E$1443786E phases=2 Bus1=102644618.2.3 Bus2=92995215.2.3 LineCode=4_ACSR_2PH_16KV_2 Length=0.04076 units=km
New Line.1443786E$1443785E phases=2 Bus1=92995215.2.3 Bus2=12317965.2.3 LineCode=4_ACSR_2PH_16KV_2 Length=0.085348 units=km
New Line.4545963E$1365141E phases=3 Bus1=136854388.1.2.3 Bus2=12301257.1.2.3 LineCode=1/0_ACSR_3PH_16KV_3 Length=0.055334 units=km
New Line.ND12351345$FD35144 phases=4 Bus1=12351345.0.1.2.3 Bus2=12317304.0.1.2.3 LineCode=2_CU_3PH_2_CU_N_16KV_4 Length=0.003668 units=km
New Line.ND12351345$2303818E phases=3 Bus1=12351345.1.2.3 Bus2=214953738.1.2.3 LineCode=653_ACSR_3PH_16KV_3 Length=0.05477 units=km
New Line.1365141E$ND246342112 phases=3 Bus1=12301257.1.2.3 Bus2=246342112.1.2.3 LineCode=1/0_ACSR_3PH_16KV_3 Length=0.040665 units=km
New Line.ND246342112$4456657E phases=3 Bus1=246342112.1.2.3 Bus2=12300787.1.2.3 LineCode=1/0_ACSR_3PH_16KV_3 Length=0.013966 units=km
New Line.2303818E$ND12351366 phases=3 Bus1=214953737.1.2.3 Bus2=12351366.1.2.3 LineCode=653_ACSR_3PH_16KV_3 Length=0.005845 units=km
New Line.ND12351366$FD35147 phases=3 Bus1=12351366.0.2.3 Bus2=12317342.0.2.3 LineCode=1/0_ACSR_2PH_1/0_ACSR_N_16KV_3_N Length=0.112204 units=km
New Line.ND12351366$ND12350850 phases=4 Bus1=12351366.0.1.2.3 Bus2=12350850.0.1.2.3 LineCode=1/0_ACSR_3PH_1/0_ACSR_N_16KV_4 Length=0.057434 units=km
New Line.4456657E$ND12351612 phases=3 Bus1=12300787.1.2.3 Bus2=12351612.1.2.3 LineCode=1/0_ACSR_3PH_16KV_3 Length=0.002702 units=km
New Line.ND12351612$1449871E phases=3 Bus1=12351612.1.2.3 Bus2=12315324.1.2.3 LineCode=4_ACSR_3PH_16KV_3 Length=0.044184 units=km
New Line.ND12350850$FD35146 phases=3 Bus1=12350850.0.1.3 Bus2=12317361.0.1.3 LineCode=1/0_ACSR_2PH_1/0_ACSR_N_16KV_3_N Length=0.024262 units=km
New Line.ND12350850$ND12350851 phases=4 Bus1=12350850.0.1.2.3 Bus2=12350851.0.1.2.3 LineCode=1/0_ACSR_3PH_1/0_ACSR_N_16KV_4 Length=0.059555 units=km
New Line.ND12350851$FD35145 phases=3 Bus1=12350851.0.2.3 Bus2=12317380.0.2.3 LineCode=2_CU_2PH_2_CU_N_16KV_3_N Length=0.121996 units=km
New Line.ND12351492$BF35531 phases=2 Bus1=12351492.1.2 Bus2=12349796.1.2 LineCode=4_ACSR_2PH_16KV_2 Length=0.013788 units=km
New Line.ND12350851$ND12351463 phases=4 Bus1=12350851.0.1.2.3 Bus2=12351463.0.1.2.3 LineCode=1/0_ACSR_3PH_1/0_ACSR_N_16KV_4 Length=0.062441 units=km
New Line.ND12351463$FD35148 phases=2 Bus1=12351463.2.3 Bus2=12317399.2.3 LineCode=1/0_ACSR_2PH_16KV_2 Length=0.117123 units=km
New Line.ND12351463$2303821E phases=4 Bus1=12351463.0.1.2.3 Bus2=210683302.0.1.2.3 LineCode=1/0_ACSR_3PH_1/0_ACSR_N_16KV_4 Length=0.016873 units=km
New Line.ND12351135$BF05994 phases=2 Bus1=12351135.1.3 Bus2=235672310.1.3 LineCode=4_ACSR_2PH_16KV_2 Length=0.008027 units=km