! OpenDSS script generated from multiconductor network
Clear

New Circuit.mc_network basekv=16.0 pu=1.000000 angle=0.00 frequency=60.0 phases=3 Mvasc3=255987 Mvasc1=85329.1
~ bus1=-8888882190361.1.2.3

! Line codes
New LineCode.1/0_JCN_2PH_16KV_2 nphases=2 units=km Rmatrix=[ 0.00141 | 0 0.00141 ] Xmatrix=[ 0.000431 | 0 0.000431 ] Cmatrix=[ 0 | 0 0 ]
New LineCode.2_AL_2PH_16KV_2 nphases=2 units=km Rmatrix=[ 0.10396 | 0 0.10396 ] Xmatrix=[ 0.021913 | 0 0.021913 ] Cmatrix=[ 0 | 0 0 ]
New LineCode.1/0_JCN_3PH_16KV_3 nphases=3 units=km Rmatrix=[ 0.00821 | 0 0.00821 | 0 0 0.00821 ] Xmatrix=[ 0.002509 | 0 0.002509 | 0 0 0.002509 ] Cmatrix=[ 0 | 0 0 | 0 0 0 ]
New LineCode.1/0_AL_2PH_16KV_2 nphases=2 units=km Rmatrix=[ 0.001171 | 0 0.001171 ] Xmatrix=[ 0.000358 | 0 0.000358 ] Cmatrix=[ 0 | 0 0 ]
New LineCode.2_JCN_3PH_16KV_3 nphases=3 units=km Rmatrix=[ 0.269874 | 0 0.269874 | 0 0 0.269874 ] Xmatrix=[ 0.056884 | 0 0.056884 | 0 0 0.056884 ] Cmatrix=[ 0 | 0 0 | 0 0 0 ]
New LineCode.2_JCN_2PH_16KV_2 nphases=2 units=km Rmatrix=[ 0.004234 | 0 0.004234 ] Xmatrix=[ 0.000892 | 0 0.000892 ] Cmatrix=[ 0 | 0 0 ]
New LineCode.2_CIC_2PH_16KV_2 nphases=2 units=km Rmatrix=[ 0.097712 | 0 0.097712 ] Xmatrix=[ 0.020596 | 0 0.020596 ] Cmatrix=[ 0 | 0 0 ]
New LineCode.2_AL_1PH_16KV_1 nphases=1 units=km Rmatrix=[ 0.148409 ] Xmatrix=[ 0.031282 ] Cmatrix=[ 0 ]
New LineCode.2_CLP_2PH_16KV_2 nphases=2 units=km Rmatrix=[ 0.072235 | 0 0.072235 ] Xmatrix=[ 0.015226 | 0 0.015226 ] Cmatrix=[ 0 | 0 0 ]
New LineCode.1/0_CLP_3PH_16KV_3 nphases=3 units=km Rmatrix=[ 0.181069 | 0 0.181069 | 0 0 0.181069 ] Xmatrix=[ 0.055343 | 0 0.055343 | 0 0 0.055343 ] Cmatrix=[ 0 | 0 0 | 0 0 0 ]
New LineCode.1/0_CLP_2PH_16KV_2 nphases=2 units=km Rmatrix=[ 0.198777 | 0 0.198777 ] Xmatrix=[ 0.060756 | 0 0.060756 ] Cmatrix=[ 0 | 0 0 ]
New LineCode.4_ACSR_3PH_16KV_3 nphases=3 units=km Rmatrix=[ 0.094019 | 0 0.094019 | 0 0 0.094019 ] Xmatrix=[ 0.0345 | 0 0.0345 | 0 0 0.0345 ] Cmatrix=[ 0 | 0 0 | 0 0 0 ]
New LineCode.2_CLP_3PH_16KV_3 nphases=3 units=km Rmatrix=[ 0.072979 | 0 0.072979 | 0 0 0.072979 ] Xmatrix=[ 0.015383 | 0 0.015383 | 0 0 0.015383 ] Cmatrix=[ 0 | 0 0 | 0 0 0 ]
New LineCode.350_CLP_3PH_16KV_3 nphases=3 units=km Rmatrix=[ 0.089139 | 0 0.089139 | 0 0 0.089139 ] Xmatrix=[ 0.067727 | 0 0.067727 | 0 0 0.067727 ] Cmatrix=[ 0 | 0 0 | 0 0 0 ]
New LineCode.2_CLP_1PH_16KV_1 nphases=1 units=km Rmatrix=[ 0.001577 ] Xmatrix=[ 0.000332 ] Cmatrix=[ 0 ]
New LineCode.2_AL_3PH_16KV_3 nphases=3 units=km Rmatrix=[ 0.19071 | 0 0.19071 | 0 0 0.19071 ] Xmatrix=[ 0.040198 | 0 0.040198 | 0 0 0.040198 ] Cmatrix=[ 0 | 0 0 | 0 0 0 ]
New LineCode.4_CU_3PH_16KV_3 nphases=3 units=km Rmatrix=[ 0.001957 | 0 0.001957 | 0 0 0.001957 ] Xmatrix=[ 0.001067 | 0 0.001067 | 0 0 0.001067 ] Cmatrix=[ 0 | 0 0 | 0 0 0 ]
New LineCode.1/0_JCN_1PH_16KV_1 nphases=1 units=km Rmatrix=[ 0.217582 ] Xmatrix=[ 0.066503 ] Cmatrix=[ 0 ]
New LineCode.350_AL_3PH_16KV_3 nphases=3 units=km Rmatrix=[ 0.01528 | 0 0.01528 | 0 0 0.01528 ] Xmatrix=[ 0.011609 | 0 0.011609 | 0 0 0.011609 ] Cmatrix=[ 0 | 0 0 | 0 0 0 ]
New LineCode.350_AL_2PH_16KV_2 nphases=2 units=km Rmatrix=[ 0.002136 | 0 0.002136 ] Xmatrix=[ 0.001623 | 0 0.001623 ] Cmatrix=[ 0 | 0 0 ]
New LineCode.4_ACSR_2PH_16KV_2 nphases=2 units=km Rmatrix=[ 0.002759 | 0 0.002759 ] Xmatrix=[ 0.001012 | 0 0.001012 ] Cmatrix=[ 0 | 0 0 ]
New LineCode.6_CU_2PH_16KV_2 nphases=2 units=km Rmatrix=[ 0.027741 | 0 0.027741 ] Xmatrix=[ 0.009833 | 0 0.009833 ] Cmatrix=[ 0 | 0 0 ]
New LineCode.1/0_ACSR_3PH_16KV_3 nphases=3 units=km Rmatrix=[ 0.088683 | 0 0.088683 | 0 0 0.088683 ] Xmatrix=[ 0.070609 | 0 0.070609 | 0 0 0.070609 ] Cmatrix=[ 0 | 0 0 | 0 0 0 ]
New LineCode.2/0_CU_3PH_16KV_3 nphases=3 units=km Rmatrix=[ 0.037976 | 0 0.037976 | 0 0 0.037976 ] Xmatrix=[ 0.058572 | 0 0.058572 | 0 0 0.058572 ] Cmatrix=[ 0 | 0 0 | 0 0 0 ]
New LineCode.336_ACSR_3PH_16KV_3 nphases=3 units=km Rmatrix=[ 0.08316 | 0 0.08316 | 0 0 0.08316 ] Xmatrix=[ 0.186228 | 0 0.186228 | 0 0 0.186228 ] Cmatrix=[ 0 | 0 0 | 0 0 0 ]
New LineCode.1/0_ACSR_2PH_16KV_2 nphases=2 units=km Rmatrix=[ 0.031116 | 0 0.031116 ] Xmatrix=[ 0.024775 | 0 0.024775 ] Cmatrix=[ 0 | 0 0 ]
New LineCode.6_CU_3PH_16KV_3 nphases=3 units=km Rmatrix=[ 0.001915 | 0 0.001915 | 0 0 0.001915 ] Xmatrix=[ 0.000679 | 0 0.000679 | 0 0 0.000679 ] Cmatrix=[ 0 | 0 0 | 0 0 0 ]
New LineCode.2_ACSR_2PH_16KV_2 nphases=2 units=km Rmatrix=[ 0.068508 | 0 0.068508 ] Xmatrix=[ 0.036831 | 0 0.036831 ] Cmatrix=[ 0 | 0 0 ]
New LineCode.1/0_ACSR_3PH_1/0_ACSR_N_16KV_4 nphases=4 units=km Rmatrix=[ 0.000913 | 0 0.000913 | 0 0 0.000913 | 0 0 0 0.000913 ] Xmatrix=[ 0.00066 | 0 0.00066 | 0 0 0.00066 | 0 0 0 0.00066 ] Cmatrix=[ 0 | 0 0 | 0 0 0 | 0 0 0 0 ]
New LineCode.2_CU_2PH_16KV_2 nphases=2 units=km Rmatrix=[ 1e-05 | 0 1e-05 ] Xmatrix=[ 1e-05 | 0 1e-05 ] Cmatrix=[ 0 | 0 0 ]
New LineCode.2_ACSR_3PH_16KV_3 nphases=3 units=km Rmatrix=[ 0.091199 | 0 0.091199 | 0 0 0.091199 ] Xmatrix=[ 0.04903 | 0 0.04903 | 0 0 0.04903 ] Cmatrix=[ 0 | 0 0 | 0 0 0 ]
New LineCode.336_ACSR_2PH_16KV_2 nphases=2 units=km Rmatrix=[ 0.00032 | 0 0.00032 ] Xmatrix=[ 0.000716 | 0 0.000716 ] Cmatrix=[ 0 | 0 0 ]
New LineCode.4_CU_2PH_16KV_2 nphases=2 units=km Rmatrix=[ 0.001934 | 0 0.001934 ] Xmatrix=[ 0.001054 | 0 0.001054 ] Cmatrix=[ 0 | 0 0 ]
New LineCode.1/0_ACSR_2PH_1/0_ACSR_N_16KV_3_N nphases=3 units=km Rmatrix=[ 0.015578 | 0 0.015578 | 0 0 0.015578 ] Xmatrix=[ 0.011258 | 0 0.011258 | 0 0 0.011258 ] Cmatrix=[ 0 | 0 0 | 0 0 0 ]
New LineCode.2_ACSR_3PH_2_ACSR_N_16KV_4 nphases=4 units=km Rmatrix=[ 0.000763 | 0 0.000763 | 0 0 0.000763 | 0 0 0 0.000763 ] Xmatrix=[ 0.00037 | 0 0.00037 | 0 0 0.00037 | 0 0 0 0.00037 ] Cmatrix=[ 0 | 0 0 | 0 0 0 | 0 0 0 0 ]
New LineCode.4_ACSR_3PH_4_ACSR_N_16KV_4 nphases=4 units=km Rmatrix=[ 1.656349 | 0 1.656349 | 0 0 1.656349 | 0 0 0 1.656349 ] Xmatrix=[ 0.557125 | 0 0.557125 | 0 0 0.557125 | 0 0 0 0.557125 ] Cmatrix=[ 0 | 0 0 | 0 0 0 | 0 0 0 0 ]
New LineCode.6_ACSR_3PH_16KV_3 nphases=3 units=km Rmatrix=[ 0.010959 | 0 0.010959 | 0 0 0.010959 ] Xmatrix=[ 0.004021 | 0 0.004021 | 0 0 0.004021 ] Cmatrix=[ 0 | 0 0 | 0 0 0 ]
New LineCode.2/0_CU_3PH_2/0_CU_N_16KV_4 nphases=4 units=km Rmatrix=[ 0.001161 | 0 0.001161 | 0 0 0.001161 | 0 0 0 0.001161 ] Xmatrix=[ 0.001608 | 0 0.001608 | 0 0 0.001608 | 0 0 0 0.001608 ] Cmatrix=[ 0 | 0 0 | 0 0 0 | 0 0 0 0 ]
New LineCode.2/0_CU_2PH_16KV_2 nphases=2 units=km Rmatrix=[ 1e-05 | 0 1e-05 ] Xmatrix=[ 1e-05 | 0 1e-05 ] Cmatrix=[ 0 | 0 0 ]
New LineCode.2_CIC_3PH_16KV_3 nphases=3 units=km Rmatrix=[ 0.432287 | 0 0.432287 | 0 0 0.432287 ] Xmatrix=[ 0.091118 | 0 0.091118 | 0 0 0.091118 ] Cmatrix=[ 0 | 0 0 | 0 0 0 ]
New LineCode.1/0_ATW_1PH_1/0_ATW_N_16KV_3_N nphases=3 units=km Rmatrix=[ 1e-05 | 0 1e-05 | 0 0 1e-05 ] Xmatrix=[ 1e-05 | 0 1e-05 | 0 0 1e-05 ] Cmatrix=[ 0 | 0 0 | 0 0 0 ]
New LineCode.1/0_ATW_3PH_16KV_3 nphases=3 units=km Rmatrix=[ 1e-05 | 0 1e-05 | 0 0 1e-05 ] Xmatrix=[ 1e-05 | 0 1e-05 | 0 0 1e-05 ] Cmatrix=[ 0 | 0 0 | 0 0 0 ]
New LineCode.2/0_CU_1PH_16KV_1 nphases=1 units=km Rmatrix=[ 1e-05 ] Xmatrix=[ 1e-05 ] Cmatrix=[ 0 ]
New LineCode.1/0_ATW_2PH_16KV_2 nphases=2 units=km Rmatrix=[ 1e-05 | 0 1e-05 ] Xmatrix=[ 1e-05 | 0 1e-05 ] Cmatrix=[ 0 | 0 0 ]
New LineCode.336_ATW_3PH_16KV_3 nphases=3 units=km Rmatrix=[ 1e-05 | 0 1e-05 | 0 0 1e-05 ] Xmatrix=[ 1e-05 | 0 1e-05 | 0 0 1e-05 ] Cmatrix=[ 0 | 0 0 | 0 0 0 ]
New LineCode.1/0_ATW_3PH_1/0_ATW_N_16KV_4 nphases=4 units=km Rmatrix=[ 1e-05 | 0 1e-05 | 0 0 1e-05 | 0 0 0 1e-05 ] Xmatrix=[ 1e-05 | 0 1e-05 | 0 0 1e-05 | 0 0 0 1e-05 ] Cmatrix=[ 0 | 0 0 | 0 0 0 | 0 0 0 0 ]
New LineCode.750_CLP_3PH_16KV_3 nphases=3 units=km Rmatrix=[ 0.006461 | 0 0.006461 | 0 0 0.006461 ] Xmatrix=[ 0.007935 | 0 0.007935 | 0 0 0.007935 ] Cmatrix=[ 0 | 0 0 | 0 0 0 ]

! Lines
New Line.182512321$P5637646-1 phases=2 Bus1=182512324.2.3 Bus2=182512286.2.3 LineCode=1/0_JCN_2PH_16KV_2 Length=0.001907 units=km
New Line.PH101$193299984 phases=2 Bus1=36733046.1.3 Bus2=193299986.1.3 LineCode=2_AL_2PH_16KV_2 Length=0.047635 units=km
New Line.166938855$1089224E phases=3 Bus1=166938881.1.2.3 Bus2=166938857.1.2.3 LineCode=1/0_JCN_3PH_16KV_3 Length=0.016653 units=km
New Line.FD40975$243900082 phases=2 Bus1=243900007.1.3 Bus2=243900084.1.3 LineCode=1/0_JCN_2PH_16KV_2 Length=0.047227 units=km
New Line.243900082$P5710128-1 phases=2 Bus1=243900085.1.3 Bus2=243900047.1.3 LineCode=1/0_JCN_2PH_16KV_2 Length=0.002291 units=km
New Line.193299984$P5033930-1 phases=2 Bus1=193299987.1.3 Bus2=36698126.1.3 LineCode=2_AL_2PH_16KV_2 Length=0.001765 units=km
New Line.FD39174$P5033935-A phases=2 Bus1=36733030.1.3 Bus2=36698198.1.3 LineCode=1/0_AL_2PH_16KV_2 Length=0.060977 units=km
New Line.P5033935-B$P5033936-B phases=2 Bus1=36698207.1.3 Bus2=36698275.1.3 LineCode=1/0_AL_2PH_16KV_2 Length=0.10433 units=km
New Line.ND148407828$4868008E phases=3 Bus1=143441103.1.2.3 Bus2=148407828.1.2.3 LineCode=2_JCN_3PH_16KV_3 Length=0.089996 units=km
New Line.P5631387-1$ND148407828 phases=3 Bus1=148407828.1.2.3 Bus2=143441147.1.2.3 LineCode=2_JCN_3PH_16KV_3 Length=0.135067 units=km
New Line.ND148407828$189405673 phases=2 Bus1=148407828.1.3 Bus2=189405675.1.3 LineCode=2_JCN_2PH_16KV_2 Length=0.2259 units=km
New Line.189405673$P5576720-1 phases=2 Bus1=189405676.1.3 Bus2=189405629.1.3 LineCode=2_JCN_2PH_16KV_2 Length=0.000872 units=km
New Line.FD39175$BS3168-1 phases=2 Bus1=36732885.1.3 Bus2=36699577.1.3 LineCode=2_CIC_2PH_16KV_2 Length=0.052132 units=km
New Line.BS3168-1$B5173283-2 phases=2 Bus1=36699578.1.3 Bus2=36699708.1.3 LineCode=2_CIC_2PH_16KV_2 Length=0.087358 units=km
New Line.FD41027$257145859 phases=2 Bus1=257145569.1.2 Bus2=257145861.1.2 LineCode=1/0_JCN_2PH_16KV_2 Length=0.022553 units=km
New Line.257145859$P5776142-1 phases=2 Bus1=257145862.1.2 Bus2=257145606.1.2 LineCode=1/0_JCN_2PH_16KV_2 Length=0.002008 units=km
New Line.P5776142-2$257145886 phases=2 Bus1=257145615.1.2 Bus2=257145889.1.2 LineCode=1/0_JCN_2PH_16KV_2 Length=0.00113 units=km
New Line.1908837E$P5034377-A phases=1 Bus1=36733544.3 Bus2=36654732.3 LineCode=2_AL_1PH_16KV_1 Length=0.132684 units=km
New Line.257145886$257145911 phases=2 Bus1=257145888.1.2 Bus2=257145913.1.2 LineCode=1/0_JCN_2PH_16KV_2 Length=0.025902 units=km
New Line.1882730E$P5458563-1 phases=2 Bus1=36734970.1.2 Bus2=36734986.1.2 LineCode=2_CLP_2PH_16KV_2 Length=0.064581 units=km
New Line.257145911$P5776143-2 phases=2 Bus1=257145914.1.2 Bus2=257145721.1.2 LineCode=1/0_JCN_2PH_16KV_2 Length=0.0011 units=km
New Line.B5173283-1$B5173330-1 phases=2 Bus1=36699699.1.3 Bus2=36699627.1.3 LineCode=2_CIC_2PH_16KV_2 Length=0.236065 units=km
New Line.P5033894-2$1796021E phases=2 Bus1=36699851.1.3 Bus2=36699876.1.3 LineCode=2_AL_2PH_16KV_2 Length=0.092944 units=km
New Line.1795899E$ND36821391 phases=3 Bus1=36765476.1.2.3 Bus2=36821391.1.2.3 LineCode=1/0_CLP_3PH_16KV_3 Length=0.256847 units=km
New Line.ND36821391$X7187E phases=3 Bus1=36821391.1.2.3 Bus2=36765489.1.2.3 LineCode=1/0_CLP_3PH_16KV_3 Length=0.02128 units=km
New Line.ND36821391$P5514520-1 phases=2 Bus1=36821391.1.3 Bus2=36765505.1.3 LineCode=1/0_CLP_2PH_16KV_2 Length=0.139624 units=km
New Line.P5776143-1$257145936 phases=2 Bus1=257145712.1.2 Bus2=257145939.1.2 LineCode=1/0_JCN_2PH_16KV_2 Length=0.00286 units=km
New Line.257145936$257145961 phases=2 Bus1=257145938.1.2 Bus2=257145963.1.2 LineCode=1/0_JCN_2PH_16KV_2 Length=0.059488 units=km
New Line.257145961$P5776145-1 phases=2 Bus1=257145964.1.2 Bus2=257145792.1.2 LineCode=1/0_JCN_2PH_16KV_2 Length=0.001949 units=km
New Line.4638667E$ND264797555 phases=3 Bus1=264797555.1.2.3 Bus2=107467493.1.2.3 LineCode=4_ACSR_3PH_16KV_3 Length=0.066037 units=km
New Line.4638667E$BS4304-1 phases=3 Bus1=107467514.1.2.3 Bus2=135329850.1.2.3 LineCode=2_CLP_3PH_16KV_3 Length=0.098238 units=km
New Line.ND135329916$BS4304-1 phases=3 Bus1=135329849.1.2.3 Bus2=135329916.1.2.3 LineCode=2_JCN_3PH_16KV_3 Length=0.009627 units=km
New Line.P5448790-1$4626379E phases=2 Bus1=36733798.1.3 Bus2=36733814.1.3 LineCode=2_CLP_2PH_16KV_2 Length=0.292885 units=km
New Line.ND135329950$ND135329916 phases=3 Bus1=135329916.1.2.3 Bus2=135329950.1.2.3 LineCode=2_JCN_3PH_16KV_3 Length=0.241433 units=km
New Line.ND135329916$194290996 phases=3 Bus1=135329916.1.2.3 Bus2=194290998.1.2.3 LineCode=2_CLP_3PH_16KV_3 Length=0.016764 units=km
New Line.ND107822093$ND135329950 phases=3 Bus1=135329950.1.2.3 Bus2=107822093.1.2.3 LineCode=2_JCN_3PH_16KV_3 Length=0.711371 units=km
New Line.ND135329950$170545458 phases=2 Bus1=135329950.1.2 Bus2=170545460.1.2 LineCode=2_CLP_2PH_16KV_2 Length=0.200783 units=km
New Line.194290996$P5566478-1 phases=3 Bus1=194290999.1.2.3 Bus2=107467535.1.2.3 LineCode=2_CLP_3PH_16KV_3 Length=0.006345 units=km
New Line.ND107822093$ND135329980 phases=3 Bus1=107822093.1.2.3 Bus2=135329980.1.2.3 LineCode=2_JCN_3PH_16KV_3 Length=0.066748 units=km
New Line.2068422E$ND36821667 phases=2 Bus1=36765391.1.2 Bus2=36821667.1.2 LineCode=2_CLP_2PH_16KV_2 Length=0.030714 units=km
New Line.170545458$P5518557-2 phases=2 Bus1=170545461.1.2 Bus2=107822031.1.2 LineCode=2_CLP_2PH_16KV_2 Length=0.002606 units=km
New Line.ND135329980$194290941 phases=2 Bus1=135329980.1.3 Bus2=194290943.1.3 LineCode=2_JCN_2PH_16KV_2 Length=0.613908 units=km
New Line.ND135329980$194290965 phases=3 Bus1=135329980.1.2.3 Bus2=194290967.1.2.3 LineCode=2_JCN_3PH_16KV_3 Length=0.02895 units=km
New Line.ND36821667$ND36821791 phases=2 Bus1=36821667.1.2 Bus2=36821791.1.2 LineCode=2_CLP_2PH_16KV_2 Length=0.079215 units=km
New Line.4552000E$ND73621043 phases=2 Bus1=73620873.2.3 Bus2=73621043.2.3 LineCode=2_CLP_2PH_16KV_2 Length=0.124553 units=km
New Line.ND36821667$P5536142-1 phases=2 Bus1=36821667.1.2 Bus2=85609494.1.2 LineCode=2_CLP_2PH_16KV_2 Length=0.681602 units=km
New Line.FD39154$BS3430-T phases=2 Bus1=36733342.2.3 Bus2=105190081.2.3 LineCode=2_AL_2PH_16KV_2 Length=0.610709 units=km
New Line.183273622$780551H phases=2 Bus1=36654912.2.3 Bus2=183273624.2.3 LineCode=1/0_AL_2PH_16KV_2 Length=0.270035 units=km
New Line.ND36821791$193407046 phases=2 Bus1=36821791.1.2 Bus2=193407048.1.2 LineCode=2_CLP_2PH_16KV_2 Length=0.236095 units=km
New Line.4339164E$ND36822948 phases=2 Bus1=36765869.1.2 Bus2=36822948.1.2 LineCode=1/0_CLP_2PH_16KV_2 Length=0.005184 units=km
New Line.ND73621043$P5515240-1 phases=2 Bus1=73621043.2.3 Bus2=73620896.2.3 LineCode=2_CLP_2PH_16KV_2 Length=0.062538 units=km
New Line.ND73621043$P5515239-2 phases=2 Bus1=73621043.2.3 Bus2=73620980.2.3 LineCode=2_CLP_2PH_16KV_2 Length=0.433681 units=km
New Line.194290941$P5566484-1 phases=2 Bus1=194290944.1.3 Bus2=107467576.1.3 LineCode=2_JCN_2PH_16KV_2 Length=0.001324 units=km
New Line.194290965$P5600629-1 phases=3 Bus1=194290968.1.2.3 Bus2=135330063.1.2.3 LineCode=2_JCN_3PH_16KV_3 Length=0.002058 units=km
New Line.4157729ET$179507347 phases=3 Bus1=36735060.1.2.3 Bus2=179507349.1.2.3 LineCode=2_CLP_3PH_16KV_3 Length=0.043284 units=km
New Line.FD39301$BS3660-1 phases=2 Bus1=36700679.2.3 Bus2=36732494.2.3 LineCode=2_AL_2PH_16KV_2 Length=0.032869 units=km
New Line.ND36822948$ND36823273 phases=2 Bus1=36822948.1.2 Bus2=36823273.1.2 LineCode=1/0_CLP_2PH_16KV_2 Length=0.289582 units=km
New Line.183273622$PME2402-1 phases=2 Bus1=183273625.2.3 Bus2=183273542.2.3 LineCode=1/0_AL_2PH_16KV_2 Length=0.001667 units=km
New Line.B5182759-1$BS3660-1 phases=2 Bus1=36732495.2.3 Bus2=36732616.2.3 LineCode=2_AL_2PH_16KV_2 Length=0.007309 units=km
New Line.B5182759-2$B5182932-1 phases=2 Bus1=36732625.2.3 Bus2=36732544.2.3 LineCode=2_AL_2PH_16KV_2 Length=0.089395 units=km
New Line.193407046$P5509044-1 phases=2 Bus1=193407049.1.2 Bus2=36765407.1.2 LineCode=2_CLP_2PH_16KV_2 Length=0.001847 units=km
New Line.ND36823273$ND36822941 phases=2 Bus1=36823273.1.2 Bus2=36822941.1.2 LineCode=1/0_CLP_2PH_16KV_2 Length=0.291934 units=km
New Line.179507347$P5482090-B phases=3 Bus1=179507350.1.2.3 Bus2=183448292.1.2.3 LineCode=2_CLP_3PH_16KV_3 Length=0.006742 units=km
New Line.B5173246-1$BS3430-L phases=2 Bus1=105190090.2.3 Bus2=36655801.2.3 LineCode=2_AL_2PH_16KV_2 Length=0.002613 units=km
New Line.P5535302-1$ND36822941 phases=2 Bus1=36822941.1.2 Bus2=36765800.1.2 LineCode=1/0_CLP_2PH_16KV_2 Length=0.102041 units=km
New Line.ND36821217$BS3430-R phases=2 Bus1=105190073.2.3 Bus2=36821217.2.3 LineCode=2_AL_2PH_16KV_2 Length=0.249504 units=km
New Line.B5182897-1$ND36821217 phases=2 Bus1=36821217.2.3 Bus2=36655873.2.3 LineCode=2_AL_2PH_16KV_2 Length=0.251353 units=km
New Line.B5195561-2$ND36821217 phases=2 Bus1=36821217.2.3 Bus2=36655954.2.3 LineCode=2_CLP_2PH_16KV_2 Length=0.048471 units=km
New Line.1067476E$P5470774-1 phases=3 Bus1=36734232.1.2.3 Bus2=36734248.1.2.3 LineCode=2_CLP_3PH_16KV_3 Length=0.018095 units=km
New Line.1359578E$ND36821171 phases=3 Bus1=36657213.1.2.3 Bus2=36821171.1.2.3 LineCode=350_CLP_3PH_16KV_3 Length=0.227274 units=km
New Line.ND36821171$GS3469-3 phases=3 Bus1=36821171.1.2.3 Bus2=36657337.1.2.3 LineCode=350_CLP_3PH_16KV_3 Length=0.116451 units=km
New Line.ND36821171$BS3274-1 phases=3 Bus1=36821171.1.2.3 Bus2=36696633.1.2.3 LineCode=1/0_CLP_3PH_16KV_3 Length=0.021595 units=km
New Line.179507335$P5482090-A phases=1 Bus1=183448284.1 Bus2=179507338.1 LineCode=2_CLP_1PH_16KV_1 Length=0.001404 units=km
New Line.183273610$PME2402-2 phases=2 Bus1=183273533.2.3 Bus2=183273613.2.3 LineCode=1/0_AL_2PH_16KV_2 Length=0.001326 units=km
New Line.B5195561-1$4465763E phases=2 Bus1=36655945.2.3 Bus2=105193316.2.3 LineCode=2_CLP_2PH_16KV_2 Length=0.122139 units=km
New Line.BS3274-1$S5182952 phases=2 Bus1=36696634.2.3 Bus2=36768720.2.3 LineCode=1/0_CLP_2PH_16KV_2 Length=0.001927 units=km
New Line.183273487$183273610 phases=2 Bus1=183273612.2.3 Bus2=183273489.2.3 LineCode=1/0_AL_2PH_16KV_2 Length=0.003231 units=km
New Line.B5182954-1$S5182952 phases=2 Bus1=36768720.2.3 Bus2=36696733.2.3 LineCode=1/0_CLP_2PH_16KV_2 Length=0.121476 units=km
New Line.P5554084-1$179507335 phases=1 Bus1=179507337.1 Bus2=69168490.1 LineCode=2_CLP_1PH_16KV_1 Length=0.146615 units=km
New Line.BS3269-1$GS3469-4 phases=2 Bus1=36657345.1.2 Bus2=36696684.1.2 LineCode=2_CLP_2PH_16KV_2 Length=0.261372 units=km
New Line.GS3469-2$ND36769121 phases=3 Bus1=36657321.1.2.3 Bus2=36769121.1.2.3 LineCode=350_CLP_3PH_16KV_3 Length=0.451099 units=km
New Line.183273487$P5403888-A phases=2 Bus1=183273490.2.3 Bus2=183273391.2.3 LineCode=1/0_AL_2PH_16KV_2 Length=0.001197 units=km
New Line.GS3469-1$BS3270-1 phases=2 Bus1=36657329.1.2 Bus2=36696877.1.2 LineCode=1/0_CLP_2PH_16KV_2 Length=0.194056 units=km
New Line.1648532E$BS3547-1 phases=3 Bus1=36732478.1.2.3 Bus2=36731456.1.2.3 LineCode=2_AL_3PH_16KV_3 Length=0.170502 units=km
New Line.B5195546-1$ND36769121 phases=2 Bus1=36769121.1.3 Bus2=36697178.1.3 LineCode=1/0_CLP_2PH_16KV_2 Length=0.179358 units=km
New Line.ND36769121$ND36769459 phases=3 Bus1=36769121.1.2.3 Bus2=36769459.1.2.3 LineCode=350_CLP_3PH_16KV_3 Length=0.008251 units=km
New Line.B5182958-2$BS3269-1 phases=2 Bus1=36696683.1.2 Bus2=36696814.1.2 LineCode=2_CLP_2PH_16KV_2 Length=0.005065 units=km
New Line.ND36769459$GS3470-3 phases=3 Bus1=36769459.1.2.3 Bus2=36697032.1.2.3 LineCode=350_CLP_3PH_16KV_3 Length=0.516475 units=km
New Line.2323100E$ND65543857 phases=3 Bus1=21562259.1.2.3 Bus2=65543857.1.2.3 LineCode=2_CLP_3PH_16KV_3 Length=0.003484 units=km
New Line.ND65543857$199758987 phases=3 Bus1=65543857.1.2.3 Bus2=199758989.1.2.3 LineCode=2_CLP_3PH_16KV_3 Length=0.046394 units=km
New Line.ND65543857$P5197085-1 phases=3 Bus1=65543857.1.2.3 Bus2=21562214.1.2.3 LineCode=2_CLP_3PH_16KV_3 Length=0.037581 units=km
New Line.199758987$P5515366-1 phases=3 Bus1=199758990.1.2.3 Bus2=65543765.1.2.3 LineCode=2_CLP_3PH_16KV_3 Length=0.006127 units=km
New Line.FD39144$ND21562146 phases=3 Bus1=21562146.1.2.3 Bus2=223344994.1.2.3 LineCode=4_CU_3PH_16KV_3 Length=0.002088 units=km
New Line.223345058$FD39144 phases=3 Bus1=223344995.1.2.3 Bus2=223345060.1.2.3 LineCode=1/0_JCN_3PH_16KV_3 Length=0.054449 units=km
New Line.223345058$P5746078-1 phases=3 Bus1=223345061.1.2.3 Bus2=223345023.1.2.3 LineCode=1/0_JCN_3PH_16KV_3 Length=0.001658 units=km
New Line.B5195547-2$ND36769459 phases=2 Bus1=36769459.1.3 Bus2=36697259.1.3 LineCode=1/0_CLP_2PH_16KV_2 Length=0.066703 units=km
New Line.B5182954-2$ND36768886 phases=2 Bus1=36696742.2.3 Bus2=36768886.2.3 LineCode=1/0_CLP_2PH_16KV_2 Length=0.591331 units=km
New Line.FD40912$238731090 phases=1 Bus1=238730976.3 Bus2=238731092.3 LineCode=1/0_JCN_1PH_16KV_1 Length=0.308585 units=km
New Line.B5182960-1$ND36768886 phases=2 Bus1=36768886.2.3 Bus2=36657627.2.3 LineCode=1/0_CLP_2PH_16KV_2 Length=0.173184 units=km
New Line.B5182956-2$BS3270-1 phases=2 Bus1=36696878.1.2 Bus2=36696936.1.2 LineCode=1/0_CLP_2PH_16KV_2 Length=0.004322 units=km
New Line.183273475$P5403888-B phases=2 Bus1=183273399.2.3 Bus2=183273478.2.3 LineCode=1/0_AL_2PH_16KV_2 Length=0.003218 units=km
New Line.B5182958-1$ND164453232 phases=2 Bus1=36696805.1.2 Bus2=164453232.1.2 LineCode=2_CLP_2PH_16KV_2 Length=0.019623 units=km
New Line.238731090$P5701476-1 phases=1 Bus1=238731093.3 Bus2=238731046.3 LineCode=1/0_JCN_1PH_16KV_1 Length=0.002228 units=km
New Line.ND164453232$194291031 phases=2 Bus1=164453232.1.2 Bus2=194291033.1.2 LineCode=1/0_JCN_2PH_16KV_2 Length=0.073456 units=km
New Line.1241564E$187352087 phases=3 Bus1=166775122.1.2.3 Bus2=187352089.1.2.3 LineCode=1/0_JCN_3PH_16KV_3 Length=0.027106 units=km
New Line.1425076E$P5595309-1 phases=3 Bus1=133478993.1.2.3 Bus2=133479075.1.2.3 LineCode=2_JCN_3PH_16KV_3 Length=0.906954 units=km
New Line.183273475$P5402346-1 phases=2 Bus1=183273477.2.3 Bus2=36654928.2.3 LineCode=1/0_AL_2PH_16KV_2 Length=0.421559 units=km
New Line.B5195548-1$GS3470-4 phases=2 Bus1=36697040.2.3 Bus2=36697322.2.3 LineCode=1/0_CLP_2PH_16KV_2 Length=0.163337 units=km
New Line.GS3470-2$GS3471-3 phases=3 Bus1=36697016.1.2.3 Bus2=36697499.1.2.3 LineCode=350_CLP_3PH_16KV_3 Length=0.646638 units=km
New Line.ND164453232$ND65429723 phases=2 Bus1=164453232.1.2 Bus2=65429723.1.2 LineCode=2_CLP_2PH_16KV_2 Length=0.219022 units=km
New Line.B5182960-2$ND70018972 phases=2 Bus1=36657636.2.3 Bus2=70018972.2.3 LineCode=1/0_CLP_2PH_16KV_2 Length=0.169058 units=km
New Line.ND65429723$201215206 phases=2 Bus1=65429723.1.2 Bus2=201215208.1.2 LineCode=2_CLP_2PH_16KV_2 Length=0.012059 units=km
New Line.ND70018972$B5182961-1 phases=2 Bus1=70018972.2.3 Bus2=36657699.2.3 LineCode=1/0_CLP_2PH_16KV_2 Length=0.12928 units=km
New Line.B5195549-2$GS3470-1 phases=2 Bus1=36697024.1.2 Bus2=36697403.1.2 LineCode=1/0_CLP_2PH_16KV_2 Length=0.196094 units=km
New Line.ND65429723$ND36734368 phases=2 Bus1=65429723.1.2 Bus2=36734368.1.2 LineCode=2_CLP_2PH_16KV_2 Length=0.066042 units=km
New Line.ND70018972$B5500096-2 phases=2 Bus1=70018972.2.3 Bus2=70018909.2.3 LineCode=2_CLP_2PH_16KV_2 Length=0.01726 units=km
New Line.194291031$P5627951-2 phases=2 Bus1=194291034.1.2 Bus2=164453169.1.2 LineCode=1/0_JCN_2PH_16KV_2 Length=0.000776 units=km
New Line.4157289E$P5411110-1 phases=3 Bus1=36697879.1.2.3 Bus2=36697924.1.2.3 LineCode=350_AL_3PH_16KV_3 Length=0.068815 units=km
New Line.P5482144-1$ND36734368 phases=2 Bus1=36734368.1.2 Bus2=36734384.1.2 LineCode=2_CLP_2PH_16KV_2 Length=0.051639 units=km
New Line.201215206$P5531860-2 phases=2 Bus1=201215209.1.2 Bus2=65429847.1.2 LineCode=2_CLP_2PH_16KV_2 Length=0.000427 units=km
New Line.GS3471-2$1255833E phases=3 Bus1=36697483.1.2.3 Bus2=15927375.1.2.3 LineCode=350_CLP_3PH_16KV_3 Length=0.240231 units=km
New Line.B5182962-1$B5182961-2 phases=2 Bus1=36657708.2.3 Bus2=36657771.2.3 LineCode=1/0_CLP_2PH_16KV_2 Length=0.350956 units=km
New Line.B5195552-1$OS3471-4 phases=2 Bus1=36697507.2.3 Bus2=36697713.2.3 LineCode=2_CLP_2PH_16KV_2 Length=0.257467 units=km
New Line.2359354E$BS2081-1 phases=2 Bus1=21560982.1.2 Bus2=21560935.1.2 LineCode=350_AL_2PH_16KV_2 Length=0.154298 units=km
New Line.OS3471-1$B5195551-1 phases=2 Bus1=36697491.2.3 Bus2=36697785.2.3 LineCode=2_JCN_2PH_16KV_2 Length=0.05774 units=km
New Line.B5182963-1$B5182962-2 phases=2 Bus1=36657780.2.3 Bus2=36657843.2.3 LineCode=1/0_CLP_2PH_16KV_2 Length=0.183583 units=km
New Line.182512344$B5195551-2 phases=2 Bus1=36697794.2.3 Bus2=182512346.2.3 LineCode=2_JCN_2PH_16KV_2 Length=0.12952 units=km
New Line.ND182512405$182512344 phases=2 Bus1=182512347.2.3 Bus2=182512405.2.3 LineCode=2_JCN_2PH_16KV_2 Length=0.003902 units=km
New Line.B5195554-2$B5182963-2 phases=2 Bus1=36657852.2.3 Bus2=36696570.2.3 LineCode=1/0_CLP_2PH_16KV_2 Length=0.235188 units=km
New Line.FD0047$P5775157-1 phases=2 Bus1=300189260.1.2 Bus2=300189302.1.2 LineCode=1/0_JCN_2PH_16KV_2 Length=0.111864 units=km
New Line.1311574E$ND304066038 phases=2 Bus1=291636506.1.3 Bus2=304066038.1.3 LineCode=2_AL_2PH_16KV_2 Length=0.004804 units=km
New Line.B5353865-1$BS2081-1 phases=2 Bus1=21560936.1.2 Bus2=21560791.1.2 LineCode=350_AL_2PH_16KV_2 Length=0.0096 units=km
New Line.182512356$ND182512405 phases=2 Bus1=182512405.2.3 Bus2=182512359.2.3 LineCode=2_JCN_2PH_16KV_2 Length=0.003776 units=km
New Line.ND182512405$182512366 phases=2 Bus1=182512405.2.3 Bus2=182512369.2.3 LineCode=1/0_JCN_2PH_16KV_2 Length=0.0023 units=km
New Line.ND304066038$72332647 phases=2 Bus1=304066038.1.3 Bus2=72332649.1.3 LineCode=2_AL_2PH_16KV_2 Length=0.055123 units=km
New Line.1424756E$P5034042-1 phases=3 Bus1=36699258.1.2.3 Bus2=36699274.1.2.3 LineCode=350_AL_3PH_16KV_3 Length=0.182569 units=km
New Line.P5499981-2$4488452E phases=2 Bus1=36765676.1.2 Bus2=36765616.1.2 LineCode=2_CLP_2PH_16KV_2 Length=0.176225 units=km
New Line.182512366$182512321 phases=2 Bus1=182512368.2.3 Bus2=182512323.2.3 LineCode=1/0_JCN_2PH_16KV_2 Length=0.00762 units=km
New Line.B5195554-1$B5195553-1 phases=2 Bus1=36696561.2.3 Bus2=36657483.2.3 LineCode=1/0_CLP_2PH_16KV_2 Length=0.084667 units=km
New Line.B5508452-1$182512356 phases=2 Bus1=182512358.2.3 Bus2=36697641.2.3 LineCode=2_JCN_2PH_16KV_2 Length=0.356338 units=km
New Line.72332647$POS2352-1 phases=2 Bus1=72332650.1.3 Bus2=21560615.1.3 LineCode=2_AL_2PH_16KV_2 Length=0.002049 units=km
New Line.B5353866-1$B5353865-2 phases=2 Bus1=21560800.1.2 Bus2=21560863.1.2 LineCode=350_AL_2PH_16KV_2 Length=0.139711 units=km
New Line.72332674$POS2352-1 phases=2 Bus1=21560616.1.3 Bus2=72332677.1.3 LineCode=2_AL_2PH_16KV_2 Length=0.003167 units=km
New Line.72332674$P5411142-2 phases=2 Bus1=72332676.1.3 Bus2=21561754.1.3 LineCode=2_AL_2PH_16KV_2 Length=0.038932 units=km
New Line.P5375198-1$1359587E phases=2 Bus1=36699319.1.3 Bus2=36699335.1.3 LineCode=350_AL_2PH_16KV_2 Length=0.053777 units=km
New Line.1795894E$1795885E phases=2 Bus1=215455765.1.2 Bus2=36734793.1.2 LineCode=4_ACSR_2PH_16KV_2 Length=0.097881 units=km
New Line.ND169893341$BF391306 phases=2 Bus1=169893298.2.3 Bus2=169893341.2.3 LineCode=6_CU_2PH_16KV_2 Length=0.001006 units=km
New Line.1406169E$1406170E phases=3 Bus1=138092272.1.2.3 Bus2=36698064.1.2.3 LineCode=4_ACSR_3PH_16KV_3 Length=0.055829 units=km
New Line.4626355E$ND36769062 phases=3 Bus1=36698493.1.2.3 Bus2=36769062.1.2.3 LineCode=1/0_ACSR_3PH_16KV_3 Length=0.170532 units=km
New Line.4625483E$ND170890535 phases=3 Bus1=36822625.1.2.3 Bus2=170890535.1.2.3 LineCode=2/0_CU_3PH_16KV_3 Length=0.000821 units=km
New Line.BF39430$ND170890535 phases=2 Bus1=170890535.2.3 Bus2=36767904.2.3 LineCode=4_ACSR_2PH_16KV_2 Length=0.016766 units=km
New Line.BF39430$787497E phases=2 Bus1=36767905.2.3 Bus2=36823108.2.3 LineCode=4_ACSR_2PH_16KV_2 Length=0.08168 units=km
New Line.101295E$ND292858752 phases=3 Bus1=292858752.1.2.3 Bus2=181556529.1.2.3 LineCode=336_ACSR_3PH_16KV_3 Length=0.037516 units=km
New Line.787497E$4625485E phases=2 Bus1=36823108.2.3 Bus2=36654111.2.3 LineCode=6_CU_2PH_16KV_2 Length=0.130536 units=km
New Line.4625485E$4628301E phases=2 Bus1=36654111.2.3 Bus2=187983905.2.3 LineCode=6_CU_2PH_16KV_2 Length=0.149495 units=km
New Line.101295E$ND36769210 phases=3 Bus1=181556529.1.2.3 Bus2=36769210.1.2.3 LineCode=336_ACSR_3PH_16KV_3 Length=0.123217 units=km
New Line.4628301E$1795771E phases=2 Bus1=187983905.2.3 Bus2=36654086.2.3 LineCode=6_CU_2PH_16KV_2 Length=0.08265 units=km
New Line.ND36769210$101298E phases=3 Bus1=36769210.1.2.3 Bus2=36654192.1.2.3 LineCode=336_ACSR_3PH_16KV_3 Length=0.052893 units=km
New Line.ND36769210$BF39407 phases=2 Bus1=36769210.1.2 Bus2=36767888.1.2 LineCode=1/0_ACSR_2PH_16KV_2 Length=0.004036 units=km
New Line.101298E$ND36823676 phases=3 Bus1=36654192.1.2.3 Bus2=36823676.1.2.3 LineCode=336_ACSR_3PH_16KV_3 Length=0.113836 units=km
New Line.ND36823676$BF391617 phases=3 Bus1=36823676.1.2.3 Bus2=207625618.1.2.3 LineCode=6_CU_3PH_16KV_3 Length=0.00121 units=km
New Line.ND36769062$653590E phases=3 Bus1=36769062.1.2.3 Bus2=36698568.1.2.3 LineCode=1/0_ACSR_3PH_16KV_3 Length=0.052536 units=km
New Line.615194E$ND169893341 phases=2 Bus1=169893341.2.3 Bus2=36699420.2.3 LineCode=6_CU_2PH_16KV_2 Length=0.098811 units=km
New Line.4375087E$ND169893341 phases=2 Bus1=169893341.2.3 Bus2=36734148.2.3 LineCode=6_CU_2PH_16KV_2 Length=0.101759 units=km
New Line.ND36769062$BF39029 phases=2 Bus1=36769062.1.3 Bus2=36767553.1.3 LineCode=2_ACSR_2PH_16KV_2 Length=0.013405 units=km
New Line.4375087E$4375093E phases=2 Bus1=36734148.2.3 Bus2=211085064.2.3 LineCode=4_ACSR_2PH_16KV_2 Length=0.078698 units=km
New Line.653590E$ND243899996 phases=3 Bus1=36698568.1.2.3 Bus2=243899996.1.2.3 LineCode=1/0_ACSR_3PH_16KV_3 Length=0.098732 units=km
New Line.ND236779270$ND36822671 phases=2 Bus1=236779270.1.3 Bus2=36822671.1.3 LineCode=2_ACSR_2PH_16KV_2 Length=0.012779 units=km
New Line.ND243899996$FD40975 phases=4 Bus1=243899996.0.1.2.3 Bus2=243900006.0.1.2.3 LineCode=1/0_ACSR_3PH_1/0_ACSR_N_16KV_4 Length=0.001423 units=km
New Line.ND36822671$PH101 phases=2 Bus1=36822671.1.3 Bus2=36733045.1.3 LineCode=2_ACSR_2PH_16KV_2 Length=0.002468 units=km
New Line.ND36822671$1311012E phases=2 Bus1=36822671.1.3 Bus2=36733075.1.3 LineCode=2_ACSR_2PH_16KV_2 Length=0.048234 units=km
New Line.BF39407$ND36821977 phases=2 Bus1=36767889.1.2 Bus2=36821977.1.2 LineCode=1/0_ACSR_2PH_16KV_2 Length=0.048617 units=km
New Line.ND36823676$4375297E phases=3 Bus1=36823676.1.2.3 Bus2=90648832.1.2.3 LineCode=336_ACSR_3PH_16KV_3 Length=0.078087 units=km
New Line.ND36821977$1795767E phases=2 Bus1=36821977.1.2 Bus2=36654136.1.2 LineCode=2_CU_2PH_16KV_2 Length=0.095976 units=km