! OpenDSS script generated from multiconductor network
Clear

New Circuit.mc_network basekv=12.0 pu=1.000000 angle=0.00 frequency=60.0 phases=3 Mvasc3=143993 Mvasc1=47997.6
~ bus1=-88888832706155.1.2.3

! Line codes
New LineCode.1000_JCN_C_3PH_12KV_3 nphases=3 units=km Rmatrix=[ 1e-05 | 0 1e-05 | 0 0 1e-05 ] Xmatrix=[ 1e-05 | 0 1e-05 | 0 0 1e-05 ] Cmatrix=[ 0 | 0 0 | 0 0 0 ]
New LineCode.653_ACSR_3PH_12KV_3 nphases=3 units=km Rmatrix=[ 0.106633 | 0 0.106633 | 0 0 0.106633 ] Xmatrix=[ 0.413964 | 0 0.413964 | 0 0 0.413964 ] Cmatrix=[ 0 | 0 0 | 0 0 0 ]
New LineCode.336_ACSR_3PH_336_ACSR_N_12KV_4 nphases=4 units=km Rmatrix=[ 0.031042 | 0 0.031042 | 0 0 0.031042 | 0 0 0 0.031042 ] Xmatrix=[ 0.061905 | 0 0.061905 | 0 0 0.061905 | 0 0 0 0.061905 ] Cmatrix=[ 0 | 0 0 | 0 0 0 | 0 0 0 0 ]
New LineCode.350_JCN_3PH_12KV_3 nphases=3 units=km Rmatrix=[ 0.112098 | 0 0.112098 | 0 0 0.112098 ] Xmatrix=[ 0.085171 | 0 0.085171 | 0 0 0.085171 ] Cmatrix=[ 0 | 0 0 | 0 0 0 ]
New LineCode.350_AL_2PH_12KV_2 nphases=2 units=km Rmatrix=[ 0.002682 | 0 0.002682 ] Xmatrix=[ 0.002038 | 0 0.002038 ] Cmatrix=[ 0 | 0 0 ]
New LineCode.1/0_JCN_3PH_12KV_3 nphases=3 units=km Rmatrix=[ 0.529334 | 0 0.529334 | 0 0 0.529334 ] Xmatrix=[ 0.161789 | 0 0.161789 | 0 0 0.161789 ] Cmatrix=[ 0 | 0 0 | 0 0 0 ]
New LineCode.1/0_ACSR_3PH_1/0_ACSR_N_12KV_4 nphases=4 units=km Rmatrix=[ 0.002925 | 0 0.002925 | 0 0 0.002925 | 0 0 0 0.002925 ] Xmatrix=[ 0.002114 | 0 0.002114 | 0 0 0.002114 | 0 0 0 0.002114 ] Cmatrix=[ 0 | 0 0 | 0 0 0 | 0 0 0 0 ]
New LineCode.1000_JCN_3PH_12KV_3 nphases=3 units=km Rmatrix=[ 0.030437 | 0 0.030437 | 0 0 0.030437 ] Xmatrix=[ 0.046073 | 0 0.046073 | 0 0 0.046073 ] Cmatrix=[ 0 | 0 0 | 0 0 0 ]
New LineCode.1/0_JCN_2PH_12KV_2 nphases=2 units=km Rmatrix=[ 0.004765 | 0 0.004765 ] Xmatrix=[ 0.001456 | 0 0.001456 ] Cmatrix=[ 0 | 0 0 ]
New LineCode.350_AL_3PH_12KV_3 nphases=3 units=km Rmatrix=[ 0.105075 | 0 0.105075 | 0 0 0.105075 ] Xmatrix=[ 0.079835 | 0 0.079835 | 0 0 0.079835 ] Cmatrix=[ 0 | 0 0 | 0 0 0 ]
New LineCode.4_ACSR_3PH_12KV_3 nphases=3 units=km Rmatrix=[ 0.025831 | 0 0.025831 | 0 0 0.025831 ] Xmatrix=[ 0.009478 | 0 0.009478 | 0 0 0.009478 ] Cmatrix=[ 0 | 0 0 | 0 0 0 ]
New LineCode.1/0_JCN_1PH_12KV_1 nphases=1 units=km Rmatrix=[ 0.048169 ] Xmatrix=[ 0.014723 ] Cmatrix=[ 0 ]
New LineCode.336_ACSR_3PH_12KV_3 nphases=3 units=km Rmatrix=[ 0.080833 | 0 0.080833 | 0 0 0.080833 ] Xmatrix=[ 0.181015 | 0 0.181015 | 0 0 0.181015 ] Cmatrix=[ 0 | 0 0 | 0 0 0 ]
New LineCode.6_CU_3PH_6_CU_N_12KV_4 nphases=4 units=km Rmatrix=[ 0.010615 | 0 0.010615 | 0 0 0.010615 | 0 0 0 0.010615 ] Xmatrix=[ 0.003428 | 0 0.003428 | 0 0 0.003428 | 0 0 0 0.003428 ] Cmatrix=[ 0 | 0 0 | 0 0 0 | 0 0 0 0 ]
New LineCode.4_CU_3PH_12KV_3 nphases=3 units=km Rmatrix=[ 0.027838 | 0 0.027838 | 0 0 0.027838 ] Xmatrix=[ 0.015172 | 0 0.015172 | 0 0 0.015172 ] Cmatrix=[ 0 | 0 0 | 0 0 0 ]
New LineCode.1/0_ACSR_3PH_12KV_3 nphases=3 units=km Rmatrix=[ 0.073566 | 0 0.073566 | 0 0 0.073566 ] Xmatrix=[ 0.058573 | 0 0.058573 | 0 0 0.058573 ] Cmatrix=[ 0 | 0 0 | 0 0 0 ]
New LineCode.6_CU_3PH_12KV_3 nphases=3 units=km Rmatrix=[ 0.036144 | 0 0.036144 | 0 0 0.036144 ] Xmatrix=[ 0.012811 | 0 0.012811 | 0 0 0.012811 ] Cmatrix=[ 0 | 0 0 | 0 0 0 ]
New LineCode.2_CU_3PH_2_CU_N_12KV_4 nphases=4 units=km Rmatrix=[ 0.002738 | 0 0.002738 | 0 0 0.002738 | 0 0 0 0.002738 ] Xmatrix=[ 0.002011 | 0 0.002011 | 0 0 0.002011 | 0 0 0 0.002011 ] Cmatrix=[ 0 | 0 0 | 0 0 0 | 0 0 0 0 ]
New LineCode.2_CLP_2PH_12KV_2 nphases=2 units=km Rmatrix=[ 0.149356 | 0 0.149356 ] Xmatrix=[ 0.031481 | 0 0.031481 ] Cmatrix=[ 0 | 0 0 ]
New LineCode.2_CU_3PH_12KV_3 nphases=3 units=km Rmatrix=[ 0.008157 | 0 0.008157 | 0 0 0.008157 ] Xmatrix=[ 0.006633 | 0 0.006633 | 0 0 0.006633 ] Cmatrix=[ 0 | 0 0 | 0 0 0 ]
New LineCode.2_CLP_1PH_12KV_1 nphases=1 units=km Rmatrix=[ 0.092799 ] Xmatrix=[ 0.01956 ] Cmatrix=[ 0 ]
New LineCode.2_CLP_3PH_12KV_3 nphases=3 units=km Rmatrix=[ 0.005102 | 0 0.005102 | 0 0 0.005102 ] Xmatrix=[ 0.001075 | 0 0.001075 | 0 0 0.001075 ] Cmatrix=[ 0 | 0 0 | 0 0 0 ]
New LineCode.2_JCN_3PH_12KV_3 nphases=3 units=km Rmatrix=[ 0.02454 | 0 0.02454 | 0 0 0.02454 ] Xmatrix=[ 0.005173 | 0 0.005173 | 0 0 0.005173 ] Cmatrix=[ 0 | 0 0 | 0 0 0 ]
New LineCode.653_ACSR_3PH_653_ACSR_N_12KV_4 nphases=4 units=km Rmatrix=[ 0.010575 | 0 0.010575 | 0 0 0.010575 | 0 0 0 0.010575 ] Xmatrix=[ 0.035956 | 0 0.035956 | 0 0 0.035956 | 0 0 0 0.035956 ] Cmatrix=[ 0 | 0 0 | 0 0 0 | 0 0 0 0 ]
New LineCode.2_ACSR_2PH_12KV_2 nphases=2 units=km Rmatrix=[ 0.024437 | 0 0.024437 ] Xmatrix=[ 0.013137 | 0 0.013137 ] Cmatrix=[ 0 | 0 0 ]
New LineCode.4_ACSR_2PH_12KV_2 nphases=2 units=km Rmatrix=[ 0.414647 | 0 0.414647 ] Xmatrix=[ 0.152152 | 0 0.152152 ] Cmatrix=[ 0 | 0 0 ]

! Lines
New Line.ND261762727$09805 phases=3 Bus1=-88888832706155.1.2.3 Bus2=261762727.1.2.3 LineCode=1000_JCN_C_3PH_12KV_3 Length=0.273855 units=km
New Line.4705815E$4705812E phases=3 Bus1=184444496.1.2.3 Bus2=214584455.1.2.3 LineCode=653_ACSR_3PH_12KV_3 Length=1.04904 units=km
New Line.ND218433175$4516045E phases=4 Bus1=218433175.0.1.2.3 Bus2=218433129.0.1.2.3 LineCode=336_ACSR_3PH_336_ACSR_N_12KV_4 Length=0.198827 units=km
New Line.4701152E$PME3931-1 phases=3 Bus1=191289247.1.2.3 Bus2=191289316.1.2.3 LineCode=350_JCN_3PH_12KV_3 Length=0.257913 units=km
New Line.2295965E$ND19244036 phases=2 Bus1=19216878.2.3 Bus2=19244036.2.3 LineCode=350_AL_2PH_12KV_2 Length=0.313119 units=km
New Line.4705816E$4705815E phases=3 Bus1=214584455.1.2.3 Bus2=214584514.1.2.3 LineCode=653_ACSR_3PH_12KV_3 Length=0.08605 units=km
New Line.ND19244036$BS8685-1 phases=2 Bus1=19244036.2.3 Bus2=19215791.2.3 LineCode=350_AL_2PH_12KV_2 Length=0.252091 units=km
New Line.2186505E$193775946 phases=3 Bus1=193775868.1.2.3 Bus2=193775948.1.2.3 LineCode=1/0_JCN_3PH_12KV_3 Length=0.075797 units=km
New Line.ND19244036$200308440 phases=2 Bus1=19244036.2.3 Bus2=200308442.2.3 LineCode=350_AL_2PH_12KV_2 Length=0.044101 units=km
New Line.PS5633$135454E phases=4 Bus1=218432785.0.1.2.3 Bus2=218432886.0.1.2.3 LineCode=1/0_ACSR_3PH_1/0_ACSR_N_12KV_4 Length=0.001904 units=km
New Line.ND44263114$4705816E phases=3 Bus1=214584514.1.2.3 Bus2=44263114.1.2.3 LineCode=653_ACSR_3PH_12KV_3 Length=0.834504 units=km
New Line.GS3866-1$977495E phases=3 Bus1=190615211.1.2.3 Bus2=190614990.1.2.3 LineCode=1000_JCN_3PH_12KV_3 Length=0.168822 units=km
New Line.PH963E$237295186 phases=3 Bus1=237295121.1.2.3 Bus2=237295188.1.2.3 LineCode=1/0_JCN_3PH_12KV_3 Length=0.081994 units=km
New Line.GS6525-2$ND238125430 phases=3 Bus1=238124666.1.2.3 Bus2=238125430.1.2.3 LineCode=1000_JCN_3PH_12KV_3 Length=0.095873 units=km
New Line.GS6525-4$GS7047-1 phases=3 Bus1=238124684.1.2.3 Bus2=242749009.1.2.3 LineCode=1000_JCN_3PH_12KV_3 Length=0.372586 units=km
New Line.200308440$P5393594-1 phases=2 Bus1=200308443.2.3 Bus2=19215742.2.3 LineCode=350_AL_2PH_12KV_2 Length=0.012119 units=km
New Line.BS8685-1$B5205252T1 phases=2 Bus1=19215790.2.3 Bus2=19232817.2.3 LineCode=350_AL_2PH_12KV_2 Length=0.003827 units=km
New Line.193775946$P5705958-1 phases=3 Bus1=193775949.1.2.3 Bus2=193775911.1.2.3 LineCode=1/0_JCN_3PH_12KV_3 Length=0.005431 units=km
New Line.135454E$PME5626-2 phases=3 Bus1=218432891.1.2.3 Bus2=215728593.1.2.3 LineCode=1000_JCN_3PH_12KV_3 Length=0.127898 units=km
New Line.ND238125430$GS6528-2 phases=3 Bus1=238125430.1.2.3 Bus2=238125328.1.2.3 LineCode=1000_JCN_3PH_12KV_3 Length=0.502263 units=km
New Line.ND238125430$238126653 phases=2 Bus1=238125430.1.3 Bus2=238126655.1.3 LineCode=1/0_JCN_2PH_12KV_2 Length=0.08445 units=km
New Line.GS6525-5$566011E phases=3 Bus1=238124693.1.2.3 Bus2=247002038.1.2.3 LineCode=1/0_JCN_3PH_12KV_3 Length=0.386729 units=km
New Line.183448972$1806422EP1 phases=3 Bus1=44210993.1.2.3 Bus2=183448974.1.2.3 LineCode=350_AL_3PH_12KV_3 Length=0.067503 units=km
New Line.PME3931-3$191289452 phases=3 Bus1=191289289.1.2.3 Bus2=191289454.1.2.3 LineCode=1/0_JCN_3PH_12KV_3 Length=0.102193 units=km
New Line.237295186$P5759402-1 phases=3 Bus1=237295189.1.2.3 Bus2=237295151.1.2.3 LineCode=1/0_JCN_3PH_12KV_3 Length=0.009218 units=km
New Line.PME3931-2$247002354 phases=3 Bus1=191289307.1.2.3 Bus2=247002357.1.2.3 LineCode=1/0_JCN_3PH_12KV_3 Length=0.004896 units=km
New Line.238126653$P5773991-1 phases=2 Bus1=238126656.1.3 Bus2=238125237.1.3 LineCode=1/0_JCN_2PH_12KV_2 Length=0.006734 units=km
New Line.566011E$PS6588 phases=3 Bus1=247002042.1.2.3 Bus2=247002235.1.2.3 LineCode=4_ACSR_3PH_12KV_3 Length=0.007238 units=km
New Line.183448972$ND183448947 phases=3 Bus1=183448975.1.2.3 Bus2=183448947.1.2.3 LineCode=350_AL_3PH_12KV_3 Length=0.014357 units=km
New Line.191289452$0215602 phases=3 Bus1=191289455.1.2.3 Bus2=191289423.1.2.3 LineCode=1/0_JCN_3PH_12KV_3 Length=0.001543 units=km
New Line.191289704$247002354 phases=3 Bus1=247002356.1.2.3 Bus2=191289706.1.2.3 LineCode=1/0_JCN_3PH_12KV_3 Length=0.153062 units=km
New Line.215729902$PME5626-3 phases=3 Bus1=215728575.1.2.3 Bus2=215729904.1.2.3 LineCode=1/0_JCN_3PH_12KV_3 Length=0.234682 units=km
New Line.GS7047-2$ND242749137 phases=3 Bus1=242749018.1.2.3 Bus2=242749137.1.2.3 LineCode=1000_JCN_3PH_12KV_3 Length=0.358594 units=km
New Line.183448982$ND183448947 phases=3 Bus1=183448947.1.2.3 Bus2=183448985.1.2.3 LineCode=1/0_JCN_3PH_12KV_3 Length=0.011829 units=km
New Line.183448992$ND183448947 phases=3 Bus1=183448947.1.2.3 Bus2=183448995.1.2.3 LineCode=350_AL_3PH_12KV_3 Length=0.013101 units=km
New Line.PME5625-1$PME5626-1 phases=3 Bus1=215728602.1.2.3 Bus2=215728398.1.2.3 LineCode=1/0_JCN_3PH_12KV_3 Length=0.751097 units=km
New Line.GS6528-3$238126528 phases=3 Bus1=238125337.1.2.3 Bus2=238126530.1.2.3 LineCode=1/0_JCN_3PH_12KV_3 Length=0.289279 units=km
New Line.238126704$ND242749137 phases=3 Bus1=242749137.1.2.3 Bus2=238126706.1.2.3 LineCode=1/0_JCN_3PH_12KV_3 Length=0.135418 units=km
New Line.GS7047-3$PME6835-2 phases=3 Bus1=242749027.1.2.3 Bus2=242749186.1.2.3 LineCode=350_JCN_3PH_12KV_3 Length=0.504928 units=km
New Line.GS6528-1$ND246245538 phases=3 Bus1=238125319.1.2.3 Bus2=246245538.1.2.3 LineCode=1000_JCN_3PH_12KV_3 Length=0.393884 units=km
New Line.GS6963-1$PME5626-4 phases=3 Bus1=215728584.1.2.3 Bus2=255774139.1.2.3 LineCode=1/0_JCN_3PH_12KV_3 Length=0.578659 units=km
New Line.191289704$5653581-1 phases=3 Bus1=191289707.1.2.3 Bus2=191289632.1.2.3 LineCode=1/0_JCN_3PH_12KV_3 Length=0.012553 units=km
New Line.215729902$ND214652027 phases=3 Bus1=215729905.1.2.3 Bus2=214652027.1.2.3 LineCode=1/0_JCN_3PH_12KV_3 Length=0.013152 units=km
New Line.ND246245538$GS6527-3 phases=3 Bus1=246245538.1.2.3 Bus2=238124988.1.2.3 LineCode=1000_JCN_3PH_12KV_3 Length=0.27746 units=km
New Line.183448982$183448960 phases=3 Bus1=183448984.1.2.3 Bus2=183448962.1.2.3 LineCode=1/0_JCN_3PH_12KV_3 Length=0.209172 units=km
New Line.183448992$200308413 phases=3 Bus1=183448994.1.2.3 Bus2=200308415.1.2.3 LineCode=350_AL_3PH_12KV_3 Length=0.473222 units=km
New Line.ND214652027$ND214652699 phases=2 Bus1=214652027.1.2 Bus2=214652699.1.2 LineCode=1/0_JCN_2PH_12KV_2 Length=0.130125 units=km
New Line.238126704$P5773990-1 phases=3 Bus1=238126707.1.2.3 Bus2=238124544.1.2.3 LineCode=1/0_JCN_3PH_12KV_3 Length=0.004743 units=km
New Line.238126528$ND238126458 phases=3 Bus1=238126531.1.2.3 Bus2=238126458.1.2.3 LineCode=1/0_JCN_3PH_12KV_3 Length=0.017611 units=km
New Line.ND214652027$255794150 phases=1 Bus1=214652027.3 Bus2=255794153.3 LineCode=1/0_JCN_1PH_12KV_1 Length=0.006424 units=km
New Line.218070878$ND214652699 phases=1 Bus1=214652699.1 Bus2=218070880.1 LineCode=1/0_JCN_1PH_12KV_1 Length=0.076063 units=km
New Line.ND214652699$218071179 phases=1 Bus1=214652699.2 Bus2=218071181.2 LineCode=1/0_JCN_1PH_12KV_1 Length=0.352178 units=km
New Line.ND238126458$238126503 phases=3 Bus1=238126458.1.2.3 Bus2=238126506.1.2.3 LineCode=1/0_JCN_3PH_12KV_3 Length=0.016331 units=km
New Line.ND238126458$238126553 phases=3 Bus1=238126458.1.2.3 Bus2=238126556.1.2.3 LineCode=1/0_JCN_3PH_12KV_3 Length=0.014226 units=km
New Line.PME6835-3$242749452 phases=3 Bus1=242749168.1.2.3 Bus2=242749455.1.2.3 LineCode=1/0_JCN_3PH_12KV_3 Length=0.003393 units=km
New Line.4692843E$ND137913505 phases=3 Bus1=137913505.1.2.3 Bus2=137913491.1.2.3 LineCode=4_ACSR_3PH_12KV_3 Length=0.423677 units=km
New Line.183448960$P5653553-1 phases=3 Bus1=183448963.1.2.3 Bus2=183448903.1.2.3 LineCode=1/0_JCN_3PH_12KV_3 Length=0.003577 units=km
New Line.2253023E$P5705947-1 phases=3 Bus1=194355275.1.2.3 Bus2=194355346.1.2.3 LineCode=1/0_JCN_3PH_12KV_3 Length=0.1781 units=km
New Line.PME5625-2$4700489E phases=3 Bus1=215728389.1.2.3 Bus2=215728503.1.2.3 LineCode=1/0_JCN_3PH_12KV_3 Length=0.139829 units=km
New Line.215729604$PME5625-3 phases=3 Bus1=215728371.1.2.3 Bus2=215729606.1.2.3 LineCode=1/0_JCN_3PH_12KV_3 Length=0.201621 units=km
New Line.2277986E$ND19242290 phases=3 Bus1=19219329.1.2.3 Bus2=19242290.1.2.3 LineCode=4_ACSR_3PH_12KV_3 Length=0.062883 units=km
New Line.4250823E$ND19244451 phases=3 Bus1=19216992.1.2.3 Bus2=19244451.1.2.3 LineCode=336_ACSR_3PH_12KV_3 Length=0.479297 units=km
New Line.2229724E$2186505E phases=3 Bus1=19216844.1.2.3 Bus2=193775867.1.2.3 LineCode=4_ACSR_3PH_12KV_3 Length=0.138266 units=km
New Line.PS5633$ND218433175 phases=4 Bus1=218433175.0.1.2.3 Bus2=218432784.0.1.2.3 LineCode=6_CU_3PH_6_CU_N_12KV_4 Length=0.007122 units=km
New Line.977495E$4516045E phases=4 Bus1=218433129.0.1.2.3 Bus2=190615210.0.1.2.3 LineCode=336_ACSR_3PH_336_ACSR_N_12KV_4 Length=0.047788 units=km
New Line.ND19242290$4699868E phases=3 Bus1=19242290.1.2.3 Bus2=19192575.1.2.3 LineCode=4_CU_3PH_12KV_3 Length=0.02748 units=km
New Line.ND19244451$1305094E phases=3 Bus1=19244451.1.2.3 Bus2=19219562.1.2.3 LineCode=4_CU_3PH_12KV_3 Length=0.017953 units=km
New Line.ND19244451$ND19241776 phases=3 Bus1=19244451.1.2.3 Bus2=19241776.1.2.3 LineCode=336_ACSR_3PH_12KV_3 Length=0.190781 units=km
New Line.ND19242290$ND19242291 phases=3 Bus1=19242290.1.2.3 Bus2=19242291.1.2.3 LineCode=4_ACSR_3PH_12KV_3 Length=0.062883 units=km
New Line.PS6101$PH963E phases=3 Bus1=237295085.1.2.3 Bus2=237295120.1.2.3 LineCode=336_ACSR_3PH_12KV_3 Length=0.003733 units=km
New Line.1305094E$2198071E phases=3 Bus1=19219562.1.2.3 Bus2=19191643.1.2.3 LineCode=4_CU_3PH_12KV_3 Length=0.463241 units=km
New Line.ND19242291$X14488E phases=3 Bus1=19242291.1.2.3 Bus2=19192225.1.2.3 LineCode=4_ACSR_3PH_12KV_3 Length=0.324571 units=km
New Line.4699868E$4632069E phases=3 Bus1=19192575.1.2.3 Bus2=19192250.1.2.3 LineCode=4_CU_3PH_12KV_3 Length=0.029806 units=km
New Line.ND19242291$X9727E phases=3 Bus1=19242291.1.2.3 Bus2=19192275.1.2.3 LineCode=4_CU_3PH_12KV_3 Length=0.052188 units=km
New Line.ND19241776$PS0135 phases=3 Bus1=19241776.1.2.3 Bus2=19232342.1.2.3 LineCode=336_ACSR_3PH_12KV_3 Length=0.101081 units=km
New Line.ND44263114$1806422EP1 phases=3 Bus1=44263114.1.2.3 Bus2=44210992.1.2.3 LineCode=336_ACSR_3PH_12KV_3 Length=0.007238 units=km
New Line.ND44263114$1957979E phases=3 Bus1=44263114.1.2.3 Bus2=44238226.1.2.3 LineCode=4_ACSR_3PH_12KV_3 Length=0.052182 units=km
New Line.ND44264557$ND44263114 phases=3 Bus1=44263114.1.2.3 Bus2=44264557.1.2.3 LineCode=336_ACSR_3PH_12KV_3 Length=0.402704 units=km
New Line.ND44264557$4693229E phases=3 Bus1=44264557.1.2.3 Bus2=105695960.1.2.3 LineCode=4_ACSR_3PH_12KV_3 Length=0.058076 units=km
New Line.1957979E$PS6062 phases=3 Bus1=44238226.1.2.3 Bus2=231365401.1.2.3 LineCode=4_ACSR_3PH_12KV_3 Length=0.042746 units=km
New Line.ND24984508$PS0135 phases=3 Bus1=19232343.1.2.3 Bus2=24984508.1.2.3 LineCode=336_ACSR_3PH_12KV_3 Length=0.102707 units=km
New Line.ND44264557$1806420E phases=3 Bus1=44264557.1.2.3 Bus2=44208688.1.2.3 LineCode=1/0_ACSR_3PH_12KV_3 Length=0.00947 units=km
New Line.4594616E$ND44264557 phases=3 Bus1=44264557.1.2.3 Bus2=44237274.1.2.3 LineCode=336_ACSR_3PH_12KV_3 Length=0.348768 units=km
New Line.ND204149872$ND24984508 phases=3 Bus1=24984508.1.2.3 Bus2=204149872.1.2.3 LineCode=1/0_ACSR_3PH_12KV_3 Length=0.062411 units=km
New Line.897532E$ND24984508 phases=3 Bus1=24984508.1.2.3 Bus2=24854832.1.2.3 LineCode=1/0_ACSR_3PH_12KV_3 Length=0.122471 units=km
New Line.897532ET1$ND24984508 phases=3 Bus1=24984508.1.2.3 Bus2=24951649.1.2.3 LineCode=6_CU_3PH_12KV_3 Length=0.016932 units=km
New Line.4693229E$4479699E phases=3 Bus1=105695960.1.2.3 Bus2=44208713.1.2.3 LineCode=4_ACSR_3PH_12KV_3 Length=0.074841 units=km
New Line.RCS0693$4594616E phases=3 Bus1=44237274.1.2.3 Bus2=44240583.1.2.3 LineCode=336_ACSR_3PH_12KV_3 Length=0.068676 units=km
New Line.ND207460485$897532E phases=3 Bus1=24854832.1.2.3 Bus2=207460485.1.2.3 LineCode=336_ACSR_3PH_12KV_3 Length=0.122471 units=km
New Line.ND204149872$ND243399165 phases=3 Bus1=204149872.1.2.3 Bus2=243399165.1.2.3 LineCode=1/0_ACSR_3PH_12KV_3 Length=0.018071 units=km
New Line.PS6062$582220E phases=3 Bus1=231365402.1.2.3 Bus2=44208836.1.2.3 LineCode=4_ACSR_3PH_12KV_3 Length=0.224205 units=km
New Line.ND243399165$PS4003 phases=3 Bus1=243399165.1.2.3 Bus2=200482579.1.2.3 LineCode=1/0_ACSR_3PH_12KV_3 Length=0.024856 units=km
New Line.582220E$BF14512 phases=3 Bus1=44208836.1.2.3 Bus2=231365345.1.2.3 LineCode=4_ACSR_3PH_12KV_3 Length=0.364368 units=km
New Line.PS6132$ND207460485 phases=3 Bus1=207460485.1.2.3 Bus2=231738707.1.2.3 LineCode=336_ACSR_3PH_12KV_3 Length=0.284411 units=km
New Line.897532ET1$977055E phases=3 Bus1=24951650.1.2.3 Bus2=24854805.1.2.3 LineCode=336_ACSR_3PH_12KV_3 Length=0.016932 units=km
New Line.977055E$977056E phases=3 Bus1=24854805.1.2.3 Bus2=24854780.1.2.3 LineCode=336_ACSR_3PH_12KV_3 Length=0.092595 units=km
New Line.1620011E$PS6588 phases=3 Bus1=247002065.1.2.3 Bus2=44207197.1.2.3 LineCode=4_ACSR_3PH_12KV_3 Length=0.13497 units=km
New Line.2253020E$1620011E phases=3 Bus1=44207197.1.2.3 Bus2=177451785.1.2.3 LineCode=4_ACSR_3PH_12KV_3 Length=0.544964 units=km
New Line.ND231365495$BF14512 phases=3 Bus1=231365346.1.2.3 Bus2=231365495.1.2.3 LineCode=4_ACSR_3PH_12KV_3 Length=0.155224 units=km
New Line.977056E$ND246422201 phases=3 Bus1=24854780.1.2.3 Bus2=246422201.1.2.3 LineCode=336_ACSR_3PH_12KV_3 Length=0.048189 units=km
New Line.1360002E$PS6132 phases=3 Bus1=231738706.1.2.3 Bus2=24854553.1.2.3 LineCode=336_ACSR_3PH_12KV_3 Length=0.329888 units=km
New Line.PS4003$4811519E phases=3 Bus1=200482578.1.2.3 Bus2=24922655.1.2.3 LineCode=1/0_ACSR_3PH_12KV_3 Length=0.198313 units=km
New Line.ND246422201$977058E phases=3 Bus1=246422201.1.2.3 Bus2=187975088.1.2.3 LineCode=336_ACSR_3PH_12KV_3 Length=0.186369 units=km
New Line.2253020E$2253023E phases=3 Bus1=177451785.1.2.3 Bus2=194355274.1.2.3 LineCode=4_ACSR_3PH_12KV_3 Length=0.366156 units=km
New Line.PS6063$ND231365495 phases=3 Bus1=231365495.1.2.3 Bus2=231365202.1.2.3 LineCode=4_ACSR_3PH_12KV_3 Length=0.008503 units=km
New Line.4811519E$2269935E phases=3 Bus1=24922655.1.2.3 Bus2=24854655.1.2.3 LineCode=1/0_ACSR_3PH_12KV_3 Length=0.231264 units=km
New Line.ND24984331$1360002E phases=3 Bus1=24854553.1.2.3 Bus2=24984331.1.2.3 LineCode=336_ACSR_3PH_12KV_3 Length=0.024036 units=km
New Line.ND44264195$ND231365495 phases=3 Bus1=231365495.1.2.3 Bus2=44264195.1.2.3 LineCode=4_ACSR_3PH_12KV_3 Length=0.514048 units=km
New Line.2269935E$ND137913505 phases=3 Bus1=24854655.1.2.3 Bus2=137913505.1.2.3 LineCode=1/0_ACSR_3PH_12KV_3 Length=0.214408 units=km
New Line.ND24984331$1707259E phases=3 Bus1=24984331.1.2.3 Bus2=24951636.1.2.3 LineCode=336_ACSR_3PH_12KV_3 Length=0.025718 units=km
New Line.ND24983733$ND24984331 phases=3 Bus1=24984331.1.2.3 Bus2=24983733.1.2.3 LineCode=1/0_ACSR_3PH_12KV_3 Length=0.103389 units=km
New Line.ND24984331$PS1421 phases=3 Bus1=24984331.1.2.3 Bus2=43625402.1.2.3 LineCode=336_ACSR_3PH_12KV_3 Length=0.039255 units=km
New Line.ND44264195$752498E phases=3 Bus1=44264195.1.2.3 Bus2=44208663.1.2.3 LineCode=4_ACSR_3PH_12KV_3 Length=0.312395 units=km
New Line.ND44264195$ND71093392 phases=3 Bus1=44264195.1.2.3 Bus2=71093392.1.2.3 LineCode=4_ACSR_3PH_12KV_3 Length=0.052352 units=km
New Line.977058E$4437252E phases=3 Bus1=187975087.1.2.3 Bus2=187975050.1.2.3 LineCode=336_ACSR_3PH_12KV_3 Length=0.08343 units=km
New Line.ND71093392$4505829E phases=3 Bus1=71093392.1.2.3 Bus2=210172855.1.2.3 LineCode=4_ACSR_3PH_12KV_3 Length=0.067675 units=km
New Line.PS6063$PH073E phases=3 Bus1=231365203.1.2.3 Bus2=231365233.1.2.3 LineCode=4_ACSR_3PH_12KV_3 Length=0.007572 units=km
New Line.GS4064-3$ND261762727 phases=3 Bus1=261762727.1.2.3 Bus2=211057065.1.2.3 LineCode=1000_JCN_3PH_12KV_3 Length=0.284487 units=km
New Line.ND208796323$GS4064-1 phases=3 Bus1=211057047.1.2.3 Bus2=208796323.1.2.3 LineCode=1000_JCN_3PH_12KV_3 Length=1.95268 units=km
New Line.ND208796323$GS3057-1 phases=3 Bus1=208796323.1.2.3 Bus2=208795982.1.2.3 LineCode=1000_JCN_3PH_12KV_3 Length=0.480368 units=km
New Line.4551678E$GS3057-2 phases=3 Bus1=208795991.1.2.3 Bus2=148507778.1.2.3 LineCode=1000_JCN_3PH_12KV_3 Length=0.377008 units=km
New Line.PME6835-1$0006836 phases=3 Bus1=242749195.1.2.3 Bus2=242749398.1.2.3 LineCode=1/0_JCN_3PH_12KV_3 Length=0.330542 units=km
New Line.GS6963-2$P5773732-B phases=3 Bus1=255774148.1.2.3 Bus2=255774540.1.2.3 LineCode=1/0_JCN_3PH_12KV_3 Length=0.43353 units=km
New Line.255794150$255794664 phases=1 Bus1=255794152.3 Bus2=255794666.3 LineCode=1/0_JCN_1PH_12KV_1 Length=0.104229 units=km
New Line.200308413$P5443612-1 phases=3 Bus1=200308416.1.2.3 Bus2=44208775.1.2.3 LineCode=350_AL_3PH_12KV_3 Length=0.006904 units=km
New Line.4551678E$ND149922796 phases=4 Bus1=148507777.0.1.2.3 Bus2=149922796.0.1.2.3 LineCode=2_CU_3PH_2_CU_N_12KV_4 Length=0.00145 units=km
New Line.211163338$4506165E phases=3 Bus1=169481198.1.2.3 Bus2=211163340.1.2.3 LineCode=1/0_JCN_3PH_12KV_3 Length=0.267633 units=km
New Line.211163338$P5583106-1 phases=3 Bus1=211163341.1.2.3 Bus2=169481263.1.2.3 LineCode=1/0_JCN_3PH_12KV_3 Length=0.013455 units=km
New Line.P5476106-1$4368563E phases=2 Bus1=19219646.2.3 Bus2=19219022.2.3 LineCode=2_CLP_2PH_12KV_2 Length=0.133531 units=km
New Line.ND84643909$ND193669723 phases=4 Bus1=84643909.0.1.2.3 Bus2=193669723.0.1.2.3 LineCode=2_CU_3PH_2_CU_N_12KV_4 Length=0.004532 units=km
New Line.ND193669723$4417298E phases=4 Bus1=193669723.0.1.2.3 Bus2=19229435.0.1.2.3 LineCode=2_CU_3PH_2_CU_N_12KV_4 Length=0.003692 units=km
New Line.P5749594-1$218070878 phases=1 Bus1=218070881.1 Bus2=214652083.1 LineCode=1/0_JCN_1PH_12KV_1 Length=0.002294 units=km
New Line.P5749607-2$218071179 phases=1 Bus1=218071182.2 Bus2=214652228.2 LineCode=1/0_JCN_1PH_12KV_1 Length=0.002885 units=km
New Line.GS6527-4$238126167 phases=3 Bus1=238124997.1.2.3 Bus2=238126169.1.2.3 LineCode=1/0_JCN_3PH_12KV_3 Length=0.271495 units=km
New Line.238126503$238126476 phases=3 Bus1=238126505.1.2.3 Bus2=238126478.1.2.3 LineCode=1/0_JCN_3PH_12KV_3 Length=0.055368 units=km
New Line.238126553$238126578 phases=3 Bus1=238126555.1.2.3 Bus2=238126580.1.2.3 LineCode=1/0_JCN_3PH_12KV_3 Length=0.078012 units=km
New Line.GS6527-2$GS6178-3 phases=3 Bus1=238124979.1.2.3 Bus2=241700032.1.2.3 LineCode=1000_JCN_3PH_12KV_3 Length=0.682562 units=km
New Line.242749452$242749479 phases=3 Bus1=242749454.1.2.3 Bus2=242749481.1.2.3 LineCode=1/0_JCN_3PH_12KV_3 Length=0.168087 units=km
New Line.GS6963-3$255774457 phases=3 Bus1=255774157.1.2.3 Bus2=255774459.1.2.3 LineCode=1/0_JCN_3PH_12KV_3 Length=0.617117 units=km
New Line.ND98436490$BF00171 phases=3 Bus1=98436490.1.2.3 Bus2=293062629.1.2.3 LineCode=4_ACSR_3PH_12KV_3 Length=0.402692 units=km
New Line.ND110347506$4693176E phases=3 Bus1=110347506.1.2.3 Bus2=110347484.1.2.3 LineCode=2_CU_3PH_12KV_3 Length=0.013565 units=km
New Line.4417298E$186263820 phases=1 Bus1=19229436.1 Bus2=186263822.1 LineCode=2_CLP_1PH_12KV_1 Length=0.08296 units=km
New Line.110347580$4693176E phases=3 Bus1=110347485.1.2.3 Bus2=110347582.1.2.3 LineCode=2_CLP_3PH_12KV_3 Length=0.20107 units=km
New Line.186263820$P5504163-1 phases=1 Bus1=186263823.1 Bus2=19229455.1 LineCode=2_CLP_1PH_12KV_1 Length=0.003852 units=km
New Line.4673177E$4890810E phases=3 Bus1=98297649.1.2.3 Bus2=188808925.1.2.3 LineCode=1/0_ACSR_3PH_12KV_3 Length=0.347077 units=km
New Line.215729604$ND219771061 phases=3 Bus1=215729607.1.2.3 Bus2=219771061.1.2.3 LineCode=1/0_JCN_3PH_12KV_3 Length=0.013156 units=km
New Line.PH073E$231365310 phases=3 Bus1=231365234.1.2.3 Bus2=231365312.1.2.3 LineCode=1/0_JCN_3PH_12KV_3 Length=0.123074 units=km
New Line.GS6527-1$238126067 phases=3 Bus1=238124970.1.2.3 Bus2=238126069.1.2.3 LineCode=1/0_JCN_3PH_12KV_3 Length=0.170774 units=km
New Line.110347580$P5583911-1 phases=3 Bus1=110347583.1.2.3 Bus2=110347533.1.2.3 LineCode=2_CLP_3PH_12KV_3 Length=0.007405 units=km
New Line.ND238124488$PS4200 phases=4 Bus1=206513419.0.1.2.3 Bus2=238124488.0.1.2.3 LineCode=336_ACSR_3PH_336_ACSR_N_12KV_4 Length=0.055921 units=km
New Line.4908576E$ND238124488 phases=4 Bus1=238124488.0.1.2.3 Bus2=200289535.0.1.2.3 LineCode=336_ACSR_3PH_336_ACSR_N_12KV_4 Length=0.418642 units=km
New Line.ND238124488$PS6585 phases=4 Bus1=238124488.0.1.2.3 Bus2=238124503.0.1.2.3 LineCode=336_ACSR_3PH_336_ACSR_N_12KV_4 Length=1.66825 units=km
New Line.4368744E$4908576E phases=4 Bus1=200289535.0.1.2.3 Bus2=106239479.0.1.2.3 LineCode=336_ACSR_3PH_336_ACSR_N_12KV_4 Length=0.363535 units=km
New Line.ND105699338$4368744E phases=4 Bus1=106239479.0.1.2.3 Bus2=105699338.0.1.2.3 LineCode=336_ACSR_3PH_336_ACSR_N_12KV_4 Length=0.011116 units=km
New Line.ND197409352$RCS3061 phases=3 Bus1=147830150.1.2.3 Bus2=197409352.1.2.3 LineCode=653_ACSR_3PH_12KV_3 Length=0.506732 units=km
New Line.ND238126741$PS6585 phases=4 Bus1=308916282.0.1.2.3 Bus2=238126741.0.1.2.3 LineCode=336_ACSR_3PH_336_ACSR_N_12KV_4 Length=0.427917 units=km
New Line.ND148887166$ND197409352 phases=3 Bus1=197409352.1.2.3 Bus2=148887166.1.2.3 LineCode=653_ACSR_3PH_12KV_3 Length=0.426673 units=km
New Line.P5773736-A$GS6963-4 phases=3 Bus1=255774166.1.2.3 Bus2=255774914.1.2.3 LineCode=1/0_JCN_3PH_12KV_3 Length=0.731994 units=km
New Line.255794664$ND255794629 phases=1 Bus1=255794667.3 Bus2=255794629.3 LineCode=1/0_JCN_1PH_12KV_1 Length=0.008802 units=km
New Line.1957975EPH$P5511483-1 phases=3 Bus1=71093366.1.2.3 Bus2=71093408.1.2.3 LineCode=2_CLP_3PH_12KV_3 Length=0.031115 units=km
New Line.4295716E$210172959 phases=3 Bus1=210172882.1.2.3 Bus2=210172961.1.2.3 LineCode=1/0_JCN_3PH_12KV_3 Length=0.134296 units=km
New Line.ND219771061$ND219770750 phases=3 Bus1=219771061.1.2.3 Bus2=219770750.1.2.3 LineCode=1/0_JCN_3PH_12KV_3 Length=0.006915 units=km
New Line.ND221810971$ND219771061 phases=1 Bus1=219771061.3 Bus2=221810971.3 LineCode=1/0_JCN_1PH_12KV_1 Length=0.285767 units=km
New Line.238126578$PME6520-1 phases=3 Bus1=238126581.1.2.3 Bus2=238125105.1.2.3 LineCode=1/0_JCN_3PH_12KV_3 Length=0.0077 units=km
New Line.238126167$ND238125490 phases=3 Bus1=238126170.1.2.3 Bus2=238125490.1.2.3 LineCode=1/0_JCN_3PH_12KV_3 Length=0.010512 units=km
New Line.238126476$P5773995-1 phases=3 Bus1=238126479.1.2.3 Bus2=238126413.1.2.3 LineCode=1/0_JCN_3PH_12KV_3 Length=0.004753 units=km
New Line.242749479$ND242749334 phases=3 Bus1=242749482.1.2.3 Bus2=242749422.1.2.3 LineCode=1/0_JCN_3PH_12KV_3 Length=0.012354 units=km
New Line.255774457$P5773738-B phases=3 Bus1=255774460.1.2.3 Bus2=255774331.1.2.3 LineCode=1/0_JCN_3PH_12KV_3 Length=0.003049 units=km
New Line.P5773732-A$P5773733-B phases=3 Bus1=255774557.1.2.3 Bus2=255774629.1.2.3 LineCode=1/0_JCN_3PH_12KV_3 Length=0.049963 units=km
New Line.ND255794629$255794691 phases=1 Bus1=255794629.3 Bus2=255794694.3 LineCode=1/0_JCN_1PH_12KV_1 Length=0.005773 units=km
New Line.ND255794629$255794729 phases=1 Bus1=255794629.3 Bus2=255794732.3 LineCode=1/0_JCN_1PH_12KV_1 Length=0.007025 units=km
New Line.BF00171$4635782E phases=3 Bus1=293062630.1.2.3 Bus2=98436484.1.2.3 LineCode=4_ACSR_3PH_12KV_3 Length=0.164826 units=km
New Line.ND238126741$PS6587 phases=4 Bus1=238126741.0.1.2.3 Bus2=238124602.0.1.2.3 LineCode=336_ACSR_3PH_336_ACSR_N_12KV_4 Length=0.898909 units=km
New Line.ND148887166$PS3062 phases=3 Bus1=148887166.1.2.3 Bus2=148282493.1.2.3 LineCode=336_ACSR_3PH_12KV_3 Length=0.05064 units=km
New Line.1771927E$PS4066 phases=4 Bus1=19192100.0.1.2.3 Bus2=206735732.0.1.2.3 LineCode=336_ACSR_3PH_336_ACSR_N_12KV_4 Length=0.07421 units=km
New Line.PS4058$ND148887166 phases=3 Bus1=148887166.1.2.3 Bus2=211056947.1.2.3 LineCode=653_ACSR_3PH_12KV_3 Length=0.072559 units=km
New Line.PS6587$PH352E phases=4 Bus1=238124813.0.1.2.3 Bus2=238124833.0.1.2.3 LineCode=336_ACSR_3PH_336_ACSR_N_12KV_4 Length=0.005992 units=km
New Line.4816225E$4635782E phases=3 Bus1=98436484.1.2.3 Bus2=190954262.1.2.3 LineCode=1/0_ACSR_3PH_12KV_3 Length=0.898656 units=km
New Line.P5707274-1$927794E phases=3 Bus1=200482613.1.2.3 Bus2=200482688.1.2.3 LineCode=1/0_JCN_3PH_12KV_3 Length=0.229105 units=km
New Line.215729584$ND219770750 phases=1 Bus1=219770750.2 Bus2=215729587.2 LineCode=1/0_JCN_1PH_12KV_1 Length=0.002395 units=km
New Line.215729594$ND219770750 phases=1 Bus1=219770750.1 Bus2=215729597.1 LineCode=1/0_JCN_1PH_12KV_1 Length=0.013217 units=km
New Line.P5749607-1$218071220 phases=1 Bus1=214652219.2 Bus2=218071223.2 LineCode=1/0_JCN_1PH_12KV_1 Length=0.002353 units=km
New Line.P5749594-2$ND218071590 phases=1 Bus1=214652092.1 Bus2=218071590.1 LineCode=1/0_JCN_1PH_12KV_1 Length=0.002898 units=km
New Line.221810992$ND221810971 phases=1 Bus1=221810971.3 Bus2=221810994.3 LineCode=1/0_JCN_1PH_12KV_1 Length=0.111595 units=km
New Line.221811019$ND221810971 phases=1 Bus1=221810971.3 Bus2=221811021.3 LineCode=1/0_JCN_1PH_12KV_1 Length=0.099228 units=km
New Line.231365310$P5759379-1 phases=3 Bus1=231365313.1.2.3 Bus2=231365266.1.2.3 LineCode=1/0_JCN_3PH_12KV_3 Length=0.005425 units=km
New Line.238126067$ND238125978 phases=3 Bus1=238126070.1.2.3 Bus2=238125978.1.2.3 LineCode=1/0_JCN_3PH_12KV_3 Length=0.012879 units=km
New Line.ND238125490$238126192 phases=3 Bus1=238125490.1.2.3 Bus2=238126195.1.2.3 LineCode=1/0_JCN_3PH_12KV_3 Length=0.01113 units=km
New Line.ND238125490$238126217 phases=3 Bus1=238125490.1.2.3 Bus2=238126220.1.2.3 LineCode=1/0_JCN_3PH_12KV_3 Length=0.012247 units=km
New Line.4865132E$187830673 phases=3 Bus1=187830583.1.2.3 Bus2=187830675.1.2.3 LineCode=1/0_JCN_3PH_12KV_3 Length=0.148565 units=km