! OpenDSS script generated from multiconductor network
Clear

New Circuit.mc_network basekv=12.0 pu=1.000000 angle=0.00 frequency=60.0 phases=3 Mvasc3=143993 Mvasc1=47997.6
~ bus1=-8888882184972.1.2.3

! Line codes
New LineCode.2_CLP_1PH_12KV_1 nphases=1 units=km Rmatrix=[ 0.004377 ] Xmatrix=[ 0.000923 ] Cmatrix=[ 0 ]
New LineCode.1/0_CLP_1PH_12KV_1 nphases=1 units=km Rmatrix=[ 0.143215 ] Xmatrix=[ 0.043773 ] Cmatrix=[ 0 ]
New LineCode.1/0_CLP_3PH_12KV_3 nphases=3 units=km Rmatrix=[ 0.088876 | 0 0.088876 | 0 0 0.088876 ] Xmatrix=[ 0.027165 | 0 0.027165 | 0 0 0.027165 ] Cmatrix=[ 0 | 0 0 | 0 0 0 ]
New LineCode.2_CLP_3PH_12KV_3 nphases=3 units=km Rmatrix=[ 0.025115 | 0 0.025115 | 0 0 0.025115 ] Xmatrix=[ 0.005294 | 0 0.005294 | 0 0 0.005294 ] Cmatrix=[ 0 | 0 0 | 0 0 0 ]
New LineCode.2_JCN_2PH_12KV_2 nphases=2 units=km Rmatrix=[ 0.206523 | 0 0.206523 ] Xmatrix=[ 0.043531 | 0 0.043531 ] Cmatrix=[ 0 | 0 0 ]
New LineCode.2_JCN_1PH_12KV_1 nphases=1 units=km Rmatrix=[ 0.196025 ] Xmatrix=[ 0.041318 ] Cmatrix=[ 0 ]
New LineCode.350_CLP_1PH_12KV_1 nphases=1 units=km Rmatrix=[ 0.046043 ] Xmatrix=[ 0.034983 ] Cmatrix=[ 0 ]
New LineCode.1/0_CLP_2PH_12KV_2 nphases=2 units=km Rmatrix=[ 0.028776 | 0 0.028776 ] Xmatrix=[ 0.008795 | 0 0.008795 ] Cmatrix=[ 0 | 0 0 ]
New LineCode.1/0_JCN_1PH_12KV_1 nphases=1 units=km Rmatrix=[ 0.001598 ] Xmatrix=[ 0.000488 ] Cmatrix=[ 0 ]
New LineCode.1000_JCN_3PH_12KV_3 nphases=3 units=km Rmatrix=[ 0.03143 | 0 0.03143 | 0 0 0.03143 ] Xmatrix=[ 0.047575 | 0 0.047575 | 0 0 0.047575 ] Cmatrix=[ 0 | 0 0 | 0 0 0 ]
New LineCode.UNK_UNK_2PH_12KV_2 nphases=2 units=km Rmatrix=[ 0.010214 | 0 0.010214 ] Xmatrix=[ 0.003122 | 0 0.003122 ] Cmatrix=[ 0 | 0 0 ]
New LineCode.UNK_UNK_1PH_12KV_1 nphases=1 units=km Rmatrix=[ 0.006406 ] Xmatrix=[ 0.001958 ] Cmatrix=[ 0 ]
New LineCode.350_JCN_3PH_12KV_3 nphases=3 units=km Rmatrix=[ 0.031171 | 0 0.031171 | 0 0 0.031171 ] Xmatrix=[ 0.023684 | 0 0.023684 | 0 0 0.023684 ] Cmatrix=[ 0 | 0 0 | 0 0 0 ]
New LineCode.1/0_JCN_3PH_12KV_3 nphases=3 units=km Rmatrix=[ 0.073794 | 0 0.073794 | 0 0 0.073794 ] Xmatrix=[ 0.022555 | 0 0.022555 | 0 0 0.022555 ] Cmatrix=[ 0 | 0 0 | 0 0 0 ]
New LineCode.1/0_JCN_2PH_12KV_2 nphases=2 units=km Rmatrix=[ 0.002211 | 0 0.002211 ] Xmatrix=[ 0.000676 | 0 0.000676 ] Cmatrix=[ 0 | 0 0 ]
New LineCode.2_JCN_3PH_12KV_3 nphases=3 units=km Rmatrix=[ 0.002439 | 0 0.002439 | 0 0 0.002439 ] Xmatrix=[ 0.000514 | 0 0.000514 | 0 0 0.000514 ] Cmatrix=[ 0 | 0 0 | 0 0 0 ]
New LineCode.350_CLP_3PH_12KV_3 nphases=3 units=km Rmatrix=[ 0.059266 | 0 0.059266 | 0 0 0.059266 ] Xmatrix=[ 0.04503 | 0 0.04503 | 0 0 0.04503 ] Cmatrix=[ 0 | 0 0 | 0 0 0 ]
New LineCode.2_CLP_2PH_12KV_2 nphases=2 units=km Rmatrix=[ 0.035069 | 0 0.035069 ] Xmatrix=[ 0.007392 | 0 0.007392 ] Cmatrix=[ 0 | 0 0 ]
New LineCode.750_CLP_3PH_12KV_3 nphases=3 units=km Rmatrix=[ 0.05546 | 0 0.05546 | 0 0 0.05546 ] Xmatrix=[ 0.068112 | 0 0.068112 | 0 0 0.068112 ] Cmatrix=[ 0 | 0 0 | 0 0 0 ]
New LineCode.336_ACSR_3PH_336_ACSR_N_12KV_4 nphases=4 units=km Rmatrix=[ 0.010302 | 0 0.010302 | 0 0 0.010302 | 0 0 0 0.010302 ] Xmatrix=[ 0.020545 | 0 0.020545 | 0 0 0.020545 | 0 0 0 0.020545 ] Cmatrix=[ 0 | 0 0 | 0 0 0 | 0 0 0 0 ]
New LineCode.8_CU_3PH_12KV_3 nphases=3 units=km Rmatrix=[ 0.005142 | 0 0.005142 | 0 0 0.005142 ] Xmatrix=[ 0.001822 | 0 0.001822 | 0 0 0.001822 ] Cmatrix=[ 0 | 0 0 | 0 0 0 ]
New LineCode.1/0_ACSR_3PH_1/0_ACSR_N_12KV_4 nphases=4 units=km Rmatrix=[ 0.002149 | 0 0.002149 | 0 0 0.002149 | 0 0 0 0.002149 ] Xmatrix=[ 0.001553 | 0 0.001553 | 0 0 0.001553 | 0 0 0 0.001553 ] Cmatrix=[ 0 | 0 0 | 0 0 0 | 0 0 0 0 ]
New LineCode.336_ACSR_3PH_12KV_3 nphases=3 units=km Rmatrix=[ 0.000748 | 0 0.000748 | 0 0 0.000748 ] Xmatrix=[ 0.001675 | 0 0.001675 | 0 0 0.001675 ] Cmatrix=[ 0 | 0 0 | 0 0 0 ]
New LineCode.4_ACSR_3PH_12KV_3 nphases=3 units=km Rmatrix=[ 0.138764 | 0 0.138764 | 0 0 0.138764 ] Xmatrix=[ 0.050919 | 0 0.050919 | 0 0 0.050919 ] Cmatrix=[ 0 | 0 0 | 0 0 0 ]

! Lines
New Line.ND69913113$69914117 phases=1 Bus1=69913113.1 Bus2=69914119.1 LineCode=2_CLP_1PH_12KV_1 Length=0.118827 units=km
New Line.P5424025-1$90391683 phases=1 Bus1=41707761.1 Bus2=90391686.1 LineCode=1/0_CLP_1PH_12KV_1 Length=0.001846 units=km
New Line.91151344$196894668 phases=1 Bus1=196894670.1 Bus2=91151346.1 LineCode=2_CLP_1PH_12KV_1 Length=0.216015 units=km
New Line.96099444$PFC2367-1 phases=1 Bus1=96099447.3 Bus2=96098234.3 LineCode=2_CLP_1PH_12KV_1 Length=0.004455 units=km
New Line.108017849$138870619 phases=1 Bus1=138870621.2 Bus2=108017851.2 LineCode=2_CLP_1PH_12KV_1 Length=0.071832 units=km
New Line.183552153$183552197 phases=1 Bus1=183552155.2 Bus2=183552199.2 LineCode=1/0_CLP_1PH_12KV_1 Length=0.10442 units=km
New Line.183903986$P5571916-2 phases=1 Bus1=95399562.1 Bus2=183903989.1 LineCode=2_CLP_1PH_12KV_1 Length=0.000855 units=km
New Line.197674505$P5423829-1 phases=1 Bus1=41699973.1 Bus2=197674508.1 LineCode=1/0_CLP_1PH_12KV_1 Length=0.000889 units=km
New Line.215275908$P5538788-1 phases=1 Bus1=71552326.1 Bus2=215275911.1 LineCode=2_CLP_1PH_12KV_1 Length=0.0018 units=km
New Line.196194121$P5425956-2 phases=1 Bus1=196194124.3 Bus2=38209610.3 LineCode=1/0_CLP_1PH_12KV_1 Length=0.000714 units=km
New Line.197452072$P5415736-1 phases=1 Bus1=197452075.1 Bus2=38210033.1 LineCode=1/0_CLP_1PH_12KV_1 Length=0.001411 units=km
New Line.197452094$P5415735-1 phases=1 Bus1=197452097.1 Bus2=38210177.1 LineCode=2_CLP_1PH_12KV_1 Length=0.001061 units=km
New Line.196894848$PME1602-4 phases=3 Bus1=196894851.1.2.3 Bus2=38237550.1.2.3 LineCode=1/0_CLP_3PH_12KV_3 Length=0.001775 units=km
New Line.P5425953-1$ND38252909 phases=1 Bus1=38209817.2 Bus2=38252909.2 LineCode=2_CLP_1PH_12KV_1 Length=0.156999 units=km
New Line.P5431352-2$P5431355-1 phases=1 Bus1=41701876.1 Bus2=41701939.1 LineCode=1/0_CLP_1PH_12KV_1 Length=0.220003 units=km
New Line.P5540195-2$P5452968-1 phases=1 Bus1=41700630.2 Bus2=41702641.2 LineCode=1/0_CLP_1PH_12KV_1 Length=0.097151 units=km
New Line.P5522257-2$41709383 phases=1 Bus1=41709418.3 Bus2=41709386.3 LineCode=2_CLP_1PH_12KV_1 Length=0.002699 units=km
New Line.P5522260-1$41709659 phases=1 Bus1=41709685.1 Bus2=41709662.1 LineCode=2_CLP_1PH_12KV_1 Length=0.002593 units=km
New Line.41710171$P5522272-1 phases=1 Bus1=41710174.2 Bus2=41710187.2 LineCode=2_CLP_1PH_12KV_1 Length=0.003054 units=km
New Line.41710253$P5522270-2 phases=1 Bus1=41710256.2 Bus2=41710278.2 LineCode=2_CLP_1PH_12KV_1 Length=0.002441 units=km
New Line.ND69913095$ND69913100 phases=1 Bus1=69913095.2 Bus2=69913100.2 LineCode=2_CLP_1PH_12KV_1 Length=0.189572 units=km
New Line.ND69913571$69913600 phases=1 Bus1=69913571.1 Bus2=69913602.1 LineCode=2_CLP_1PH_12KV_1 Length=0.104342 units=km
New Line.ND69913571$69914425 phases=1 Bus1=69913571.1 Bus2=69914427.1 LineCode=2_CLP_1PH_12KV_1 Length=0.016966 units=km
New Line.P5572618-2$196894646 phases=1 Bus1=196894648.3 Bus2=91151029.3 LineCode=2_CLP_1PH_12KV_1 Length=0.711837 units=km
New Line.91151319$196894658 phases=1 Bus1=196894660.2 Bus2=91151321.2 LineCode=2_CLP_1PH_12KV_1 Length=0.078974 units=km
New Line.95396819$PME2265-4 phases=3 Bus1=95396822.1.2.3 Bus2=95396241.1.2.3 LineCode=2_CLP_3PH_12KV_3 Length=0.002073 units=km
New Line.99277530$ND99277466 phases=1 Bus1=99277532.2 Bus2=99277466.2 LineCode=2_CLP_1PH_12KV_1 Length=0.002478 units=km
New Line.105586835$P5588855-1 phases=3 Bus1=105586838.1.2.3 Bus2=105586773.1.2.3 LineCode=2_CLP_3PH_12KV_3 Length=0.003182 units=km
New Line.ND151689896$138870641 phases=2 Bus1=138870643.1.3 Bus2=151689896.1.3 LineCode=2_JCN_2PH_12KV_2 Length=0.18464 units=km
New Line.151689933$138870631 phases=1 Bus1=138870633.3 Bus2=151689936.3 LineCode=2_JCN_1PH_12KV_1 Length=0.18464 units=km
New Line.174438507$P5449061-2 phases=1 Bus1=41701516.2 Bus2=174438510.2 LineCode=1/0_CLP_1PH_12KV_1 Length=0.001453 units=km
New Line.183552062$P5451186-1 phases=1 Bus1=41703103.2 Bus2=183552065.2 LineCode=2_CLP_1PH_12KV_1 Length=0.000757 units=km
New Line.P5449219-2$205099792 phases=1 Bus1=41702968.3 Bus2=205099794.3 LineCode=350_CLP_1PH_12KV_1 Length=0.170955 units=km
New Line.P5425957-1$ND38252909 phases=1 Bus1=38252909.2 Bus2=38209745.2 LineCode=2_CLP_1PH_12KV_1 Length=0.024687 units=km
New Line.ND38252909$ND38253352 phases=1 Bus1=38252909.2 Bus2=38253352.2 LineCode=2_CLP_1PH_12KV_1 Length=0.232126 units=km
New Line.205099868$P5411015-2 phases=1 Bus1=205099871.2 Bus2=41700846.2 LineCode=1/0_CLP_1PH_12KV_1 Length=0.000689 units=km
New Line.90391683$P5424026-2 phases=1 Bus1=90391685.1 Bus2=41707698.1 LineCode=1/0_CLP_1PH_12KV_1 Length=0.148652 units=km
New Line.41708029$41707937 phases=2 Bus1=41707939.2.3 Bus2=41708031.2.3 LineCode=1/0_CLP_2PH_12KV_2 Length=0.125145 units=km
New Line.P5545990-1$69914117 phases=1 Bus1=69914120.1 Bus2=69913302.1 LineCode=2_CLP_1PH_12KV_1 Length=0.003566 units=km
New Line.ND69913100$69913794 phases=1 Bus1=69913100.2 Bus2=69913796.2 LineCode=2_CLP_1PH_12KV_1 Length=0.020552 units=km
New Line.ND90391205$P5530228-2 phases=1 Bus1=71037575.1 Bus2=90391205.1 LineCode=2_CLP_1PH_12KV_1 Length=0.006373 units=km
New Line.P5563916-2$91151344 phases=1 Bus1=91151347.1 Bus2=91150313.1 LineCode=2_CLP_1PH_12KV_1 Length=0.013043 units=km
New Line.PFC2367-1$96099408 phases=1 Bus1=96098235.3 Bus2=96099411.3 LineCode=2_CLP_1PH_12KV_1 Length=0.006133 units=km
New Line.ND99277466$99277505 phases=1 Bus1=99277466.2 Bus2=99277507.2 LineCode=2_CLP_1PH_12KV_1 Length=0.115049 units=km
New Line.99277555$ND99277466 phases=1 Bus1=99277466.2 Bus2=99277558.2 LineCode=2_CLP_1PH_12KV_1 Length=0.01114 units=km
New Line.108017849$ND108017026 phases=1 Bus1=108017852.2 Bus2=108017026.2 LineCode=2_CLP_1PH_12KV_1 Length=0.012029 units=km
New Line.138870815$ND151689896 phases=2 Bus1=151689896.1.3 Bus2=138870818.1.3 LineCode=2_JCN_2PH_12KV_2 Length=0.002162 units=km
New Line.ND151689896$ND138870895 phases=2 Bus1=151689896.1.3 Bus2=138870895.1.3 LineCode=2_JCN_2PH_12KV_2 Length=0.004562 units=km
New Line.ND164937993$ND38253352 phases=1 Bus1=38253352.2 Bus2=164937993.2 LineCode=2_CLP_1PH_12KV_1 Length=0.00467 units=km
New Line.183903934$183903986 phases=1 Bus1=183903988.1 Bus2=183903936.1 LineCode=2_CLP_1PH_12KV_1 Length=0.075355 units=km
New Line.196895000$PME1584-2 phases=1 Bus1=38209144.1 Bus2=196895003.1 LineCode=2_CLP_1PH_12KV_1 Length=0.001312 units=km
New Line.215275908$215275918 phases=1 Bus1=215275910.1 Bus2=215275920.1 LineCode=2_CLP_1PH_12KV_1 Length=0.074191 units=km
New Line.P5430121-1$P5609708-1 phases=1 Bus1=38210605.3 Bus2=38210533.3 LineCode=350_CLP_1PH_12KV_1 Length=0.163151 units=km
New Line.P5430124-1$ND38254718 phases=1 Bus1=38209313.3 Bus2=38254718.3 LineCode=2_CLP_1PH_12KV_1 Length=0.237153 units=km
New Line.197674505$P5423830-1 phases=1 Bus1=197674507.1 Bus2=41699901.1 LineCode=1/0_CLP_1PH_12KV_1 Length=0.2077 units=km
New Line.P5429967-2$P5429968-1 phases=1 Bus1=41700270.3 Bus2=41700189.3 LineCode=2_CLP_1PH_12KV_1 Length=0.076167 units=km
New Line.J976A-2P$P5429977-2 phases=1 Bus1=41702466.3 Bus2=41700486.3 LineCode=1/0_CLP_1PH_12KV_1 Length=0.13518 units=km
New Line.183552197$P5446463-1 phases=1 Bus1=183552200.2 Bus2=41703031.2 LineCode=1/0_CLP_1PH_12KV_1 Length=0.001353 units=km
New Line.41709659$41709567 phases=1 Bus1=41709661.1 Bus2=41709569.1 LineCode=2_CLP_1PH_12KV_1 Length=0.165886 units=km
New Line.41709383$ND41723586 phases=1 Bus1=41709385.3 Bus2=41723586.3 LineCode=2_CLP_1PH_12KV_1 Length=0.105827 units=km
New Line.P5545989-2$69913600 phases=1 Bus1=69913603.1 Bus2=69912699.1 LineCode=2_CLP_1PH_12KV_1 Length=0.000423 units=km
New Line.69914425$P5545991-1 phases=1 Bus1=69914428.1 Bus2=69913222.1 LineCode=2_CLP_1PH_12KV_1 Length=0.002413 units=km
New Line.90391483$ND90391205 phases=1 Bus1=90391205.1 Bus2=90391486.1 LineCode=2_CLP_1PH_12KV_1 Length=0.002827 units=km
New Line.90391508$ND90391205 phases=1 Bus1=90391205.1 Bus2=90391511.1 LineCode=2_CLP_1PH_12KV_1 Length=0.002176 units=km
New Line.91151319$P5563914-2 phases=1 Bus1=91151322.2 Bus2=91151189.2 LineCode=2_CLP_1PH_12KV_1 Length=0.004765 units=km
New Line.ND108017026$108017774 phases=1 Bus1=108017026.2 Bus2=108017777.2 LineCode=2_CLP_1PH_12KV_1 Length=0.012892 units=km
New Line.ND108017026$108017799 phases=1 Bus1=108017026.2 Bus2=108017802.2 LineCode=2_CLP_1PH_12KV_1 Length=0.006326 units=km
New Line.ND108017026$108017824 phases=1 Bus1=108017026.2 Bus2=108017827.2 LineCode=2_CLP_1PH_12KV_1 Length=0.005505 units=km
New Line.ND108562521$183552062 phases=1 Bus1=183552064.2 Bus2=108562521.2 LineCode=2_CLP_1PH_12KV_1 Length=0.026896 units=km
New Line.138870837$ND138870895 phases=2 Bus1=138870895.1.3 Bus2=138870840.1.3 LineCode=2_JCN_2PH_12KV_2 Length=0.002168 units=km
New Line.108017574$108017649 phases=1 Bus1=108017576.2 Bus2=108017651.2 LineCode=2_CLP_1PH_12KV_1 Length=0.0718 units=km
New Line.P5600111-1$108017724 phases=1 Bus1=108017045.2 Bus2=108017727.2 LineCode=2_CLP_1PH_12KV_1 Length=0.001144 units=km
New Line.ND138870877$ND138870895 phases=2 Bus1=138870895.1.3 Bus2=138870877.1.3 LineCode=2_JCN_2PH_12KV_2 Length=0.017107 units=km
New Line.151689933$ND151274996 phases=1 Bus1=151689935.3 Bus2=151274996.3 LineCode=2_JCN_1PH_12KV_1 Length=0.347916 units=km
New Line.196894751$PME1602-2 phases=1 Bus1=38237560.3 Bus2=196894754.3 LineCode=2_JCN_1PH_12KV_1 Length=0.001264 units=km
New Line.196894988$PME1584-1 phases=1 Bus1=38209162.2 Bus2=196894991.2 LineCode=2_CLP_1PH_12KV_1 Length=0.001307 units=km
New Line.196895010$PME1584-3 phases=1 Bus1=38209153.3 Bus2=196895013.3 LineCode=2_CLP_1PH_12KV_1 Length=0.001314 units=km
New Line.197452084$P5415736-2 phases=1 Bus1=38210042.1 Bus2=197452087.1 LineCode=1/0_CLP_1PH_12KV_1 Length=0.001434 units=km
New Line.P5425989-2$ND164937993 phases=1 Bus1=164937993.2 Bus2=38190784.2 LineCode=2_CLP_1PH_12KV_1 Length=0.088223 units=km
New Line.ND38254718$P5430126-2 phases=1 Bus1=38254718.3 Bus2=38209394.3 LineCode=2_CLP_1PH_12KV_1 Length=0.047627 units=km
New Line.P5430128-2$ND38254718 phases=1 Bus1=38254718.3 Bus2=38209466.3 LineCode=2_CLP_1PH_12KV_1 Length=0.120007 units=km
New Line.P5425991-2$ND164937993 phases=1 Bus1=164937993.2 Bus2=38209970.2 LineCode=2_CLP_1PH_12KV_1 Length=0.063232 units=km
New Line.P5429978-1$J976A-1P phases=1 Bus1=41702450.3 Bus2=41700333.3 LineCode=1/0_CLP_1PH_12KV_1 Length=0.090327 units=km
New Line.P5431356-1$P5431355-2 phases=1 Bus1=41701948.1 Bus2=41702011.1 LineCode=1/0_CLP_1PH_12KV_1 Length=0.149716 units=km
New Line.205099792$P5449218-1 phases=1 Bus1=205099795.3 Bus2=41702887.3 LineCode=350_CLP_1PH_12KV_1 Length=0.001918 units=km
New Line.197452114$P5415737-1 phases=1 Bus1=38210105.1 Bus2=197452117.1 LineCode=1/0_CLP_1PH_12KV_1 Length=0.002026 units=km
New Line.ND38254281$197674610 phases=1 Bus1=38254281.1 Bus2=197674612.1 LineCode=2_CLP_1PH_12KV_1 Length=0.067909 units=km
New Line.ND38254281$197674640 phases=1 Bus1=38254281.1 Bus2=197674642.1 LineCode=2_CLP_1PH_12KV_1 Length=0.047141 units=km
New Line.211312688$P5449077-1 phases=1 Bus1=41700549.3 Bus2=211312691.3 LineCode=1/0_CLP_1PH_12KV_1 Length=0.001174 units=km
New Line.41709751$P5522261-2 phases=1 Bus1=41709754.1 Bus2=41709776.1 LineCode=2_CLP_1PH_12KV_1 Length=0.00295 units=km
New Line.41709475$41709915 phases=1 Bus1=41709477.3 Bus2=41709917.3 LineCode=2_CLP_1PH_12KV_1 Length=0.034575 units=km
New Line.41710089$41709997 phases=1 Bus1=41710091.3 Bus2=41709999.3 LineCode=2_CLP_1PH_12KV_1 Length=0.152884 units=km
New Line.41709577$ND41722523 phases=1 Bus1=41709579.1 Bus2=41722523.1 LineCode=2_CLP_1PH_12KV_1 Length=0.015443 units=km
New Line.ND69913540$69913844 phases=1 Bus1=69913847.2 Bus2=69913540.2 LineCode=2_CLP_1PH_12KV_1 Length=0.001903 units=km
New Line.ND71468515$71468626 phases=1 Bus1=71468515.2 Bus2=71468628.2 LineCode=2_CLP_1PH_12KV_1 Length=0.107263 units=km
New Line.ND71468515$71468713 phases=1 Bus1=71468515.2 Bus2=71468715.2 LineCode=2_CLP_1PH_12KV_1 Length=0.067923 units=km
New Line.90391558$P5558788-1 phases=1 Bus1=90391243.1 Bus2=90391561.1 LineCode=2_CLP_1PH_12KV_1 Length=0.003417 units=km
New Line.P5572619-1$91151599 phases=1 Bus1=91151100.3 Bus2=91151602.3 LineCode=2_CLP_1PH_12KV_1 Length=0.007101 units=km
New Line.108017624$P5600114-2 phases=1 Bus1=108017134.2 Bus2=108017627.2 LineCode=2_CLP_1PH_12KV_1 Length=0.002025 units=km
New Line.108018296$ND108018056 phases=1 Bus1=108018298.2 Bus2=108018056.2 LineCode=2_CLP_1PH_12KV_1 Length=0.103537 units=km
New Line.P5600124-2$141625353 phases=1 Bus1=138870737.1 Bus2=141625356.1 LineCode=2_JCN_1PH_12KV_1 Length=0.00188 units=km
New Line.151274964$151274954 phases=1 Bus1=151274956.3 Bus2=151274966.3 LineCode=2_JCN_1PH_12KV_1 Length=0.189484 units=km
New Line.164938827$P5429735-1 phases=1 Bus1=38188582.1 Bus2=164938830.1 LineCode=2_JCN_1PH_12KV_1 Length=0.000483 units=km
New Line.176827334$183552279 phases=1 Bus1=183552281.2 Bus2=176827336.2 LineCode=1/0_CLP_1PH_12KV_1 Length=0.15201 units=km
New Line.177754917$215275987 phases=1 Bus1=215275989.2 Bus2=177754919.2 LineCode=350_CLP_1PH_12KV_1 Length=0.087279 units=km
New Line.B5417169-2$ND192906455 phases=2 Bus1=41710950.2.3 Bus2=192906455.2.3 LineCode=1/0_CLP_2PH_12KV_2 Length=0.001298 units=km
New Line.205099831$P5411016-1 phases=1 Bus1=41700909.2 Bus2=205099834.2 LineCode=1/0_CLP_1PH_12KV_1 Length=0.001179 units=km
New Line.197674583$P5430131-2 phases=1 Bus1=197674586.3 Bus2=38208556.3 LineCode=2_CLP_1PH_12KV_1 Length=0.000649 units=km
New Line.197674553$P5430107-2 phases=1 Bus1=197674556.3 Bus2=38208700.3 LineCode=2_CLP_1PH_12KV_1 Length=0.000749 units=km
New Line.108018271$P5440260-2 phases=1 Bus1=108018273.2 Bus2=38237476.2 LineCode=1/0_CLP_1PH_12KV_1 Length=0.111811 units=km
New Line.ND41722523$41709833 phases=1 Bus1=41722523.1 Bus2=41709835.1 LineCode=2_CLP_1PH_12KV_1 Length=0.116405 units=km
New Line.P5545996-1$ND69913540 phases=1 Bus1=69913540.2 Bus2=69912554.2 LineCode=2_CLP_1PH_12KV_1 Length=0.001586 units=km
New Line.ND69913540$69913903 phases=1 Bus1=69913540.2 Bus2=69913906.2 LineCode=2_CLP_1PH_12KV_1 Length=0.002731 units=km
New Line.P5533796-2$69914192 phases=1 Bus1=69913379.1 Bus2=69914195.1 LineCode=2_CLP_1PH_12KV_1 Length=0.002015 units=km
New Line.P5545675-2$71468688 phases=1 Bus1=71468691.2 Bus2=71468364.2 LineCode=2_CLP_1PH_12KV_1 Length=0.003752 units=km
New Line.P5545673-1$71468738 phases=1 Bus1=71468741.2 Bus2=71468428.2 LineCode=2_CLP_1PH_12KV_1 Length=0.003261 units=km
New Line.91151419$P5563917-1 phases=1 Bus1=91150384.1 Bus2=91151422.1 LineCode=2_CLP_1PH_12KV_1 Length=0.003561 units=km
New Line.183904024$P5571918-1 phases=1 Bus1=183904027.1 Bus2=94836719.1 LineCode=2_CLP_1PH_12KV_1 Length=0.001816 units=km
New Line.P5563894-2$95396947 phases=1 Bus1=95396490.3 Bus2=95396950.3 LineCode=2_CLP_1PH_12KV_1 Length=0.003861 units=km
New Line.95397792$95397626 phases=1 Bus1=95397794.1 Bus2=95397628.1 LineCode=2_CLP_1PH_12KV_1 Length=0.088142 units=km
New Line.95397880$95397653 phases=1 Bus1=95397882.1 Bus2=95397655.1 LineCode=2_CLP_1PH_12KV_1 Length=0.057365 units=km
New Line.95397767$95397742 phases=1 Bus1=95397769.1 Bus2=95397744.1 LineCode=2_CLP_1PH_12KV_1 Length=0.106195 units=km
New Line.96099574$96099549 phases=1 Bus1=96099576.3 Bus2=96099551.3 LineCode=2_CLP_1PH_12KV_1 Length=0.043221 units=km
New Line.P5424481-1$41708029 phases=2 Bus1=41708032.2.3 Bus2=41708045.2.3 LineCode=1/0_CLP_2PH_12KV_2 Length=0.001339 units=km
New Line.41709485$ND41723586 phases=1 Bus1=41723586.3 Bus2=41709487.3 LineCode=2_CLP_1PH_12KV_1 Length=0.105965 units=km
New Line.ND41723586$41710079 phases=1 Bus1=41723586.3 Bus2=41710081.3 LineCode=2_CLP_1PH_12KV_1 Length=0.050783 units=km
New Line.ND41724214$174438507 phases=1 Bus1=174438509.2 Bus2=41724214.2 LineCode=1/0_CLP_1PH_12KV_1 Length=0.113679 units=km
New Line.P5545994-2$69913794 phases=1 Bus1=69913797.2 Bus2=69912971.2 LineCode=2_CLP_1PH_12KV_1 Length=0.001014 units=km
New Line.P5572618-1$91151674 phases=1 Bus1=91151020.3 Bus2=91151677.3 LineCode=2_CLP_1PH_12KV_1 Length=0.006725 units=km
New Line.96099408$96099599 phases=1 Bus1=96099410.3 Bus2=96099601.3 LineCode=2_CLP_1PH_12KV_1 Length=0.05588 units=km
New Line.99277505$P5572886-1 phases=1 Bus1=99277508.2 Bus2=99277315.2 LineCode=2_CLP_1PH_12KV_1 Length=0.002627 units=km
New Line.99277478$99277555 phases=1 Bus1=99277557.2 Bus2=99277480.2 LineCode=2_CLP_1PH_12KV_1 Length=0.213588 units=km
New Line.138870827$ND138870877 phases=2 Bus1=138870877.1.3 Bus2=138870830.1.3 LineCode=2_JCN_2PH_12KV_2 Length=0.002823 units=km
New Line.138870815$138870992 phases=1 Bus1=138870817.1 Bus2=138870994.1 LineCode=2_JCN_1PH_12KV_1 Length=0.184343 units=km
New Line.ND151274996$141625556 phases=1 Bus1=151274996.3 Bus2=141625559.3 LineCode=2_JCN_1PH_12KV_1 Length=0.138495 units=km
New Line.ND151274996$151274942 phases=1 Bus1=151274996.3 Bus2=151274944.3 LineCode=2_JCN_1PH_12KV_1 Length=0.100936 units=km
New Line.ND108562521$182256268 phases=1 Bus1=108562521.2 Bus2=182256270.2 LineCode=2_CLP_1PH_12KV_1 Length=0.098385 units=km
New Line.ND108562521$183552111 phases=1 Bus1=108562521.2 Bus2=183552113.2 LineCode=2_CLP_1PH_12KV_1 Length=0.120157 units=km
New Line.ND41724214$183552291 phases=1 Bus1=41724214.2 Bus2=183552293.2 LineCode=1/0_CLP_1PH_12KV_1 Length=0.045142 units=km
New Line.196894763$PME1602-3 phases=1 Bus1=38237569.1 Bus2=196894766.1 LineCode=2_JCN_1PH_12KV_1 Length=0.002921 units=km
New Line.196894773$PME1602-1 phases=1 Bus1=38237578.2 Bus2=196894776.2 LineCode=1/0_CLP_1PH_12KV_1 Length=0.001427 units=km
New Line.205099880$P5411015-1 phases=1 Bus1=41700837.2 Bus2=205099883.2 LineCode=1/0_CLP_1PH_12KV_1 Length=0.000803 units=km
New Line.ND41724214$215275999 phases=1 Bus1=41724214.2 Bus2=215276001.2 LineCode=350_CLP_1PH_12KV_1 Length=0.168064 units=km
New Line.P5574639-1$196895000 phases=1 Bus1=196895002.1 Bus2=38209051.1 LineCode=2_CLP_1PH_12KV_1 Length=0.10543 units=km
New Line.P5522262-1$41709567 phases=1 Bus1=41709570.1 Bus2=41709593.1 LineCode=2_CLP_1PH_12KV_1 Length=0.004248 units=km
New Line.P5545990-2$69914142 phases=1 Bus1=69913311.1 Bus2=69914145.1 LineCode=2_CLP_1PH_12KV_1 Length=0.003326 units=km
New Line.215275918$P5538789-2 phases=1 Bus1=215275921.1 Bus2=71552403.1 LineCode=2_CLP_1PH_12KV_1 Length=0.001164 units=km
New Line.ND90391101$90391483 phases=1 Bus1=90391485.1 Bus2=90391101.1 LineCode=2_CLP_1PH_12KV_1 Length=0.092135 units=km
New Line.90391508$90391458 phases=1 Bus1=90391510.1 Bus2=90391460.1 LineCode=2_CLP_1PH_12KV_1 Length=0.105026 units=km
New Line.P5600115-2$108017649 phases=1 Bus1=108017652.2 Bus2=108017214.2 LineCode=2_CLP_1PH_12KV_1 Length=0.002136 units=km
New Line.108017724$108017749 phases=1 Bus1=108017726.2 Bus2=108017751.2 LineCode=2_CLP_1PH_12KV_1 Length=0.20943 units=km
New Line.ND108018056$108018346 phases=1 Bus1=108018056.2 Bus2=108018348.2 LineCode=2_CLP_1PH_12KV_1 Length=0.092759 units=km
New Line.ND108018056$108018396 phases=1 Bus1=108018056.2 Bus2=108018398.2 LineCode=2_CLP_1PH_12KV_1 Length=0.12323 units=km
New Line.ND192906455$P5571851-2 phases=1 Bus1=192906455.3 Bus2=163219254.3 LineCode=1/0_CLP_1PH_12KV_1 Length=0.057452 units=km
New Line.197452114$197452124 phases=1 Bus1=197452116.1 Bus2=197452126.1 LineCode=1/0_CLP_1PH_12KV_1 Length=0.152523 units=km
New Line.211312649$211312688 phases=1 Bus1=211312690.3 Bus2=211312651.3 LineCode=1/0_CLP_1PH_12KV_1 Length=0.220375 units=km
New Line.197674640$P5430103-2 phases=1 Bus1=197674643.1 Bus2=38208844.1 LineCode=2_CLP_1PH_12KV_1 Length=0.000439 units=km
New Line.197674610$P5430104-2 phases=1 Bus1=197674613.1 Bus2=38208916.1 LineCode=2_CLP_1PH_12KV_1 Length=0.00086 units=km
New Line.P5431358-1$P5449066-2 phases=1 Bus1=41702155.1 Bus2=41701804.1 LineCode=1/0_CLP_1PH_12KV_1 Length=0.122256 units=km
New Line.ND192906455$41708111 phases=1 Bus1=192906455.2 Bus2=41708113.2 LineCode=1/0_CLP_1PH_12KV_1 Length=0.158405 units=km
New Line.41709915$P5522271-2 phases=1 Bus1=41709918.3 Bus2=41709940.3 LineCode=2_CLP_1PH_12KV_1 Length=0.001257 units=km
New Line.41709997$P5522265-2 phases=1 Bus1=41710000.3 Bus2=41710022.3 LineCode=2_CLP_1PH_12KV_1 Length=0.002501 units=km
New Line.P5545992-2$69913720 phases=1 Bus1=69913151.1 Bus2=69913723.1 LineCode=2_CLP_1PH_12KV_1 Length=0.002082 units=km
New Line.P5545677-2$71468713 phases=1 Bus1=71468716.2 Bus2=71468296.2 LineCode=2_CLP_1PH_12KV_1 Length=0.002849 units=km
New Line.71468626$ND71469076 phases=1 Bus1=71468629.2 Bus2=71469076.2 LineCode=2_CLP_1PH_12KV_1 Length=0.002003 units=km
New Line.90391583$90391558 phases=1 Bus1=90391560.1 Bus2=90391585.1 LineCode=2_CLP_1PH_12KV_1 Length=0.119832 units=km
New Line.91151599$91151574 phases=1 Bus1=91151601.3 Bus2=91151576.3 LineCode=2_CLP_1PH_12KV_1 Length=0.046895 units=km
New Line.P5572614-2$91151804 phases=1 Bus1=91150783.2 Bus2=91151807.2 LineCode=2_CLP_1PH_12KV_1 Length=0.002103 units=km
New Line.108017674$108017624 phases=1 Bus1=108017626.2 Bus2=108017676.2 LineCode=2_CLP_1PH_12KV_1 Length=0.089312 units=km
New Line.141625387$141625353 phases=1 Bus1=141625355.1 Bus2=141625389.1 LineCode=2_JCN_1PH_12KV_1 Length=0.200762 units=km
New Line.151274964$P5533980-1 phases=1 Bus1=151274967.3 Bus2=151274771.3 LineCode=2_JCN_1PH_12KV_1 Length=0.001402 units=km
New Line.164938827$ND164938865 phases=1 Bus1=164938829.1 Bus2=164938865.1 LineCode=2_JCN_1PH_12KV_1 Length=0.003546 units=km
New Line.P5449257-1$205099831 phases=1 Bus1=205099833.2 Bus2=41700981.2 LineCode=1/0_CLP_1PH_12KV_1 Length=0.132422 units=km
New Line.176827334$P5449065-1 phases=1 Bus1=176827337.2 Bus2=41701651.2 LineCode=1/0_CLP_1PH_12KV_1 Length=0.001232 units=km
New Line.177754917$P5449212-1 phases=1 Bus1=177754920.2 Bus2=41702815.2 LineCode=350_CLP_1PH_12KV_1 Length=0.000836 units=km
New Line.41709833$P5522266-2 phases=1 Bus1=41709836.1 Bus2=41709858.1 LineCode=2_CLP_1PH_12KV_1 Length=0.002283 units=km
New Line.69913903$69913928 phases=1 Bus1=69913905.2 Bus2=69913930.2 LineCode=2_CLP_1PH_12KV_1 Length=0.124264 units=km
New Line.69914192$69914217 phases=1 Bus1=69914194.1 Bus2=69914219.1 LineCode=2_CLP_1PH_12KV_1 Length=0.151837 units=km
New Line.ND71469076$P5545679-1 phases=1 Bus1=71469076.2 Bus2=71468151.2 LineCode=2_CLP_1PH_12KV_1 Length=0.003544 units=km
New Line.71468601$ND71469076 phases=1 Bus1=71469076.2 Bus2=71468604.2 LineCode=2_CLP_1PH_12KV_1 Length=0.001508 units=km
New Line.91151444$91151419 phases=1 Bus1=91151421.1 Bus2=91151446.1 LineCode=2_CLP_1PH_12KV_1 Length=0.076059 units=km
New Line.95396947$95396972 phases=1 Bus1=95396949.3 Bus2=95396974.3 LineCode=2_CLP_1PH_12KV_1 Length=0.079198 units=km
New Line.95397626$P5563902-1 phases=1 Bus1=95397629.1 Bus2=95397178.1 LineCode=2_CLP_1PH_12KV_1 Length=0.007986 units=km
New Line.95397653$P5563901-2 phases=1 Bus1=95397656.1 Bus2=95397271.1 LineCode=2_CLP_1PH_12KV_1 Length=0.006227 units=km
New Line.95397742$P5563903-2 phases=1 Bus1=95397745.1 Bus2=95397526.1 LineCode=2_CLP_1PH_12KV_1 Length=0.006558 units=km
New Line.96099549$P5528710-1 phases=1 Bus1=96099552.3 Bus2=96098932.3 LineCode=2_CLP_1PH_12KV_1 Length=0.005901 units=km
New Line.91151369$P5563916-1 phases=1 Bus1=91150304.1 Bus2=91151372.1 LineCode=2_CLP_1PH_12KV_1 Length=0.005742 units=km
New Line.PME2265-3$95396871 phases=1 Bus1=95396260.3 Bus2=95396874.3 LineCode=2_CLP_1PH_12KV_1 Length=0.007292 units=km
New Line.PME2265-1$95397965 phases=1 Bus1=95396269.1 Bus2=95397968.1 LineCode=2_CLP_1PH_12KV_1 Length=0.018852 units=km
New Line.183903934$P5571917-1 phases=1 Bus1=183903937.1 Bus2=95399718.1 LineCode=2_CLP_1PH_12KV_1 Length=0.000767 units=km
New Line.108017774$108017549 phases=1 Bus1=108017776.2 Bus2=108017551.2 LineCode=2_CLP_1PH_12KV_1 Length=0.109331 units=km
New Line.108017749$P5600113-2 phases=1 Bus1=108017752.2 Bus2=108016880.2 LineCode=2_CLP_1PH_12KV_1 Length=0.001105 units=km
New Line.108018396$P5600119-2 phases=1 Bus1=108018399.2 Bus2=108017994.2 LineCode=2_CLP_1PH_12KV_1 Length=0.002848 units=km
New Line.108018346$P5600120-2 phases=1 Bus1=108018349.2 Bus2=108018172.2 LineCode=2_CLP_1PH_12KV_1 Length=0.000627 units=km
New Line.ND164938865$164938130 phases=1 Bus1=164938865.1 Bus2=164938132.1 LineCode=1/0_JCN_1PH_12KV_1 Length=0.077186 units=km
New Line.183904036$P5571918-2 phases=1 Bus1=94836728.1 Bus2=183904039.1 LineCode=2_CLP_1PH_12KV_1 Length=0.002905 units=km
New Line.197452124$P5415738-2 phases=1 Bus1=197452127.1 Bus2=38210258.1 LineCode=1/0_CLP_1PH_12KV_1 Length=0.001894 units=km
New Line.211312649$P5449255-2 phases=1 Bus1=211312652.3 Bus2=41700414.3 LineCode=1/0_CLP_1PH_12KV_1 Length=0.000904 units=km
New Line.41708111$P5424721-1 phases=1 Bus1=41708114.2 Bus2=41708127.2 LineCode=1/0_CLP_1PH_12KV_1 Length=0.003332 units=km
New Line.ND69913107$69913720 phases=1 Bus1=69913722.1 Bus2=69913107.1 LineCode=2_CLP_1PH_12KV_1 Length=0.044249 units=km
New Line.P5545996-2$69913878 phases=1 Bus1=69912563.2 Bus2=69913881.2 LineCode=2_CLP_1PH_12KV_1 Length=0.001874 units=km
New Line.90391583$P5558789-2 phases=1 Bus1=90391586.1 Bus2=90391125.1 LineCode=2_CLP_1PH_12KV_1 Length=0.004074 units=km
New Line.91151574$P5572620-2 phases=1 Bus1=91151577.3 Bus2=91150634.3 LineCode=2_CLP_1PH_12KV_1 Length=0.006397 units=km
New Line.91151804$91151267 phases=1 Bus1=91151806.2 Bus2=91151269.2 LineCode=2_CLP_1PH_12KV_1 Length=0.075071 units=km
New Line.108017674$P5600116-1 phases=1 Bus1=108017677.2 Bus2=108017280.2 LineCode=2_CLP_1PH_12KV_1 Length=0.000667 units=km
New Line.P5600180-1$141625387 phases=1 Bus1=141625390.1 Bus2=141624973.1 LineCode=2_JCN_1PH_12KV_1 Length=0.000984 units=km
New Line.182256370$P5571851-1 phases=1 Bus1=163219245.3 Bus2=182256373.3 LineCode=1/0_CLP_1PH_12KV_1 Length=0.001467 units=km
New Line.108017599$108017799 phases=1 Bus1=108017801.2 Bus2=108017601.2 LineCode=2_CLP_1PH_12KV_1 Length=0.127433 units=km
New Line.108017824$108017699 phases=1 Bus1=108017826.2 Bus2=108017701.2 LineCode=2_CLP_1PH_12KV_1 Length=0.087479 units=km
New Line.138870837$P5600125-1 phases=1 Bus1=138870839.1 Bus2=138870916.1 LineCode=2_JCN_1PH_12KV_1 Length=0.085568 units=km
New Line.196894751$ND164938813 phases=1 Bus1=196894753.3 Bus2=164938813.3 LineCode=2_JCN_1PH_12KV_1 Length=0.178801 units=km