! OpenDSS script generated from multiconductor network
Clear

New Circuit.mc_network basekv=16.0 pu=1.000000 angle=0.00 frequency=60.0 phases=3 Mvasc3=255987 Mvasc1=85329.1
~ bus1=-8888882172770.1.2.3

! Line codes
New LineCode.954_ACSR_3PH_16KV_3 nphases=3 units=km Rmatrix=[ 1e-05 | 0 1e-05 | 0 0 1e-05 ] Xmatrix=[ 1e-05 | 0 1e-05 | 0 0 1e-05 ] Cmatrix=[ 0 | 0 0 | 0 0 0 ]
New LineCode.750_CLP_3PH_16KV_3 nphases=3 units=km Rmatrix=[ 0.074815 | 0 0.074815 | 0 0 0.074815 ] Xmatrix=[ 0.091882 | 0 0.091882 | 0 0 0.091882 ] Cmatrix=[ 0 | 0 0 | 0 0 0 ]
New LineCode.1/0_CLP_3PH_16KV_3 nphases=3 units=km Rmatrix=[ 0.003223 | 0 0.003223 | 0 0 0.003223 ] Xmatrix=[ 0.000985 | 0 0.000985 | 0 0 0.000985 ] Cmatrix=[ 0 | 0 0 | 0 0 0 ]
New LineCode.1/0_JCN_3PH_16KV_3 nphases=3 units=km Rmatrix=[ 0.120922 | 0 0.120922 | 0 0 0.120922 ] Xmatrix=[ 0.036959 | 0 0.036959 | 0 0 0.036959 ] Cmatrix=[ 0 | 0 0 | 0 0 0 ]
New LineCode.2_CLP_3PH_16KV_3 nphases=3 units=km Rmatrix=[ 0.042796 | 0 0.042796 | 0 0 0.042796 ] Xmatrix=[ 0.009021 | 0 0.009021 | 0 0 0.009021 ] Cmatrix=[ 0 | 0 0 | 0 0 0 ]
New LineCode.350_JCN_3PH_16KV_3 nphases=3 units=km Rmatrix=[ 0.037092 | 0 0.037092 | 0 0 0.037092 ] Xmatrix=[ 0.028182 | 0 0.028182 | 0 0 0.028182 ] Cmatrix=[ 0 | 0 0 | 0 0 0 ]
New LineCode.1000_JCN_3PH_16KV_3 nphases=3 units=km Rmatrix=[ 0.023677 | 0 0.023677 | 0 0 0.023677 ] Xmatrix=[ 0.03584 | 0 0.03584 | 0 0 0.03584 ] Cmatrix=[ 0 | 0 0 | 0 0 0 ]
New LineCode.1000_CLP_3PH_16KV_3 nphases=3 units=km Rmatrix=[ 0.007092 | 0 0.007092 | 0 0 0.007092 ] Xmatrix=[ 0.010735 | 0 0.010735 | 0 0 0.010735 ] Cmatrix=[ 0 | 0 0 | 0 0 0 ]
New LineCode.4_CU_3PH_16KV_3 nphases=3 units=km Rmatrix=[ 0.001306 | 0 0.001306 | 0 0 0.001306 ] Xmatrix=[ 0.000712 | 0 0.000712 | 0 0 0.000712 ] Cmatrix=[ 0 | 0 0 | 0 0 0 ]
New LineCode.4/0_CU_3PH_16KV_3 nphases=3 units=km Rmatrix=[ 0.009119 | 0 0.009119 | 0 0 0.009119 ] Xmatrix=[ 0.021469 | 0 0.021469 | 0 0 0.021469 ] Cmatrix=[ 0 | 0 0 | 0 0 0 ]
New LineCode.4_ACSR_3PH_16KV_3 nphases=3 units=km Rmatrix=[ 0.035292 | 0 0.035292 | 0 0 0.035292 ] Xmatrix=[ 0.01295 | 0 0.01295 | 0 0 0.01295 ] Cmatrix=[ 0 | 0 0 | 0 0 0 ]
New LineCode.2_JCN_3PH_16KV_3 nphases=3 units=km Rmatrix=[ 0.118347 | 0 0.118347 | 0 0 0.118347 ] Xmatrix=[ 0.024945 | 0 0.024945 | 0 0 0.024945 ] Cmatrix=[ 0 | 0 0 | 0 0 0 ]
New LineCode.350_CLP_3PH_16KV_3 nphases=3 units=km Rmatrix=[ 0.001336 | 0 0.001336 | 0 0 0.001336 ] Xmatrix=[ 0.001015 | 0 0.001015 | 0 0 0.001015 ] Cmatrix=[ 0 | 0 0 | 0 0 0 ]
New LineCode.4/0_ACSR_3PH_16KV_3 nphases=3 units=km Rmatrix=[ 0.00081 | 0 0.00081 | 0 0 0.00081 ] Xmatrix=[ 0.001145 | 0 0.001145 | 0 0 0.001145 ] Cmatrix=[ 0 | 0 0 | 0 0 0 ]
New LineCode.336_ACSR_3PH_16KV_3 nphases=3 units=km Rmatrix=[ 0.012525 | 0 0.012525 | 0 0 0.012525 ] Xmatrix=[ 0.028049 | 0 0.028049 | 0 0 0.028049 ] Cmatrix=[ 0 | 0 0 | 0 0 0 ]
New LineCode.1/0_ACSR_3PH_16KV_3 nphases=3 units=km Rmatrix=[ 0.001917 | 0 0.001917 | 0 0 0.001917 ] Xmatrix=[ 0.001527 | 0 0.001527 | 0 0 0.001527 ] Cmatrix=[ 0 | 0 0 | 0 0 0 ]

! Lines
New Line.ND18211040$1612525E phases=3 Bus1=18211040.1.2.3 Bus2=18186028.1.2.3 LineCode=954_ACSR_3PH_16KV_3 Length=0.045464 units=km
New Line.11935$2380621EP1 phases=3 Bus1=-8888882172770.1.2.3 Bus2=18186147.1.2.3 LineCode=750_CLP_3PH_16KV_3 Length=0.34035 units=km
New Line.305494450$P5139794-1 phases=3 Bus1=305494453.1.2.3 Bus2=215699036.1.2.3 LineCode=1/0_CLP_3PH_16KV_3 Length=0.002193 units=km
New Line.J331A-3P$240240789 phases=3 Bus1=102650597.1.2.3 Bus2=240240791.1.2.3 LineCode=1/0_JCN_3PH_16KV_3 Length=0.079879 units=km
New Line.240403568$P5654591-1 phases=3 Bus1=240403571.1.2.3 Bus2=182661406.1.2.3 LineCode=1/0_JCN_3PH_16KV_3 Length=0.002032 units=km
New Line.GS0081-2$FC1-1 phases=3 Bus1=18150641.1.2.3 Bus2=197620731.1.2.3 LineCode=1/0_CLP_3PH_16KV_3 Length=0.089856 units=km
New Line.226298179$PME6794-4 phases=3 Bus1=200230007.1.2.3 Bus2=226298181.1.2.3 LineCode=1/0_JCN_3PH_16KV_3 Length=0.07078 units=km
New Line.194039593$P5053332-1 phases=3 Bus1=194039596.1.2.3 Bus2=108975131.1.2.3 LineCode=2_CLP_3PH_16KV_3 Length=0.002408 units=km
New Line.GS0081-3$V5165756 phases=3 Bus1=18150657.1.2.3 Bus2=18187203.1.2.3 LineCode=1/0_CLP_3PH_16KV_3 Length=0.067818 units=km
New Line.200230225$PME6794-3 phases=3 Bus1=200229998.1.2.3 Bus2=200230227.1.2.3 LineCode=1/0_JCN_3PH_16KV_3 Length=0.07252 units=km
New Line.P5755823-1$240240789 phases=3 Bus1=240240792.1.2.3 Bus2=240240739.1.2.3 LineCode=1/0_JCN_3PH_16KV_3 Length=0.002821 units=km
New Line.GS0081-4$V5045752PT phases=3 Bus1=18150665.1.2.3 Bus2=128141717.1.2.3 LineCode=750_CLP_3PH_16KV_3 Length=0.039893 units=km
New Line.FC1-1$V5165702T1 phases=3 Bus1=197620732.1.2.3 Bus2=18189000.1.2.3 LineCode=1/0_CLP_3PH_16KV_3 Length=0.005709 units=km
New Line.PME0902-4$ND186497458 phases=3 Bus1=186497269.1.2.3 Bus2=186497458.1.2.3 LineCode=350_JCN_3PH_16KV_3 Length=0.166687 units=km
New Line.P5653226-1$226298179 phases=3 Bus1=226298182.1.2.3 Bus2=242513376.1.2.3 LineCode=1/0_JCN_3PH_16KV_3 Length=0.003698 units=km
New Line.PME0902-1$244764486 phases=3 Bus1=186497287.1.2.3 Bus2=244764488.1.2.3 LineCode=1/0_JCN_3PH_16KV_3 Length=0.05712 units=km
New Line.V5045752PT$RCS6096-1 phases=3 Bus1=128141717.1.2.3 Bus2=128141652.1.2.3 LineCode=750_CLP_3PH_16KV_3 Length=0.004724 units=km
New Line.ND186497458$V5045760 phases=3 Bus1=186497458.1.2.3 Bus2=186497481.1.2.3 LineCode=1000_JCN_3PH_16KV_3 Length=0.280462 units=km
New Line.200230225$ND200230211 phases=3 Bus1=200230228.1.2.3 Bus2=200230193.1.2.3 LineCode=1/0_JCN_3PH_16KV_3 Length=0.005201 units=km
New Line.1204416E$GS5770-3 phases=3 Bus1=18186580.1.2.3 Bus2=18186640.1.2.3 LineCode=750_CLP_3PH_16KV_3 Length=0.42371 units=km
New Line.GS5770-2$4178879E phases=3 Bus1=18186632.1.2.3 Bus2=18186784.1.2.3 LineCode=750_CLP_3PH_16KV_3 Length=0.084771 units=km
New Line.GS5770-1$V5436683T1 phases=3 Bus1=18186624.1.2.3 Bus2=18189070.1.2.3 LineCode=750_CLP_3PH_16KV_3 Length=0.003226 units=km
New Line.V5436683T1$1204433E phases=3 Bus1=18189070.1.2.3 Bus2=18186754.1.2.3 LineCode=750_CLP_3PH_16KV_3 Length=0.052803 units=km
New Line.244764486$P5140124-1 phases=3 Bus1=244764489.1.2.3 Bus2=61115825.1.2.3 LineCode=1/0_JCN_3PH_16KV_3 Length=0.003859 units=km
New Line.ND239603429$RCS6096-1CL phases=3 Bus1=128141653.1.2.3 Bus2=239603429.1.2.3 LineCode=750_CLP_3PH_16KV_3 Length=0.154596 units=km
New Line.ND239603795$ND239603429 phases=3 Bus1=239603429.1.2.3 Bus2=239603795.1.2.3 LineCode=750_CLP_3PH_16KV_3 Length=0.021224 units=km
New Line.GS6016-2$ND239603795 phases=3 Bus1=239603795.1.2.3 Bus2=239603681.1.2.3 LineCode=750_CLP_3PH_16KV_3 Length=0.006759 units=km
New Line.GS6016-3$ND239603397 phases=3 Bus1=239603690.1.2.3 Bus2=239603397.1.2.3 LineCode=750_CLP_3PH_16KV_3 Length=0.012422 units=km
New Line.GS6016-1$ND239603826 phases=3 Bus1=239603672.1.2.3 Bus2=239603826.1.2.3 LineCode=1/0_CLP_3PH_16KV_3 Length=0.006517 units=km
New Line.ND239603397$GS6392-3 phases=3 Bus1=239603397.1.2.3 Bus2=223191317.1.2.3 LineCode=750_CLP_3PH_16KV_3 Length=0.125154 units=km
New Line.GS6016-4$ND239603365 phases=3 Bus1=239603699.1.2.3 Bus2=239603365.1.2.3 LineCode=1/0_CLP_3PH_16KV_3 Length=0.010416 units=km
New Line.4619247E$PME0904-3 phases=3 Bus1=18150382.1.2.3 Bus2=18185664.1.2.3 LineCode=1000_CLP_3PH_16KV_3 Length=0.083797 units=km
New Line.PMH0904-2$4030450E phases=3 Bus1=18185682.1.2.3 Bus2=18186088.1.2.3 LineCode=750_CLP_3PH_16KV_3 Length=0.091252 units=km
New Line.PME0904-4$ND18189079 phases=3 Bus1=18185673.1.2.3 Bus2=18189079.1.2.3 LineCode=1/0_CLP_3PH_16KV_3 Length=0.009699 units=km
New Line.PME6969-4$307683877 phases=3 Bus1=238494217.1.2.3 Bus2=307683879.1.2.3 LineCode=1/0_JCN_3PH_16KV_3 Length=0.021295 units=km
New Line.PME5946-3$311013475 phases=3 Bus1=18188606.1.2.3 Bus2=311013478.1.2.3 LineCode=1/0_CLP_3PH_16KV_3 Length=0.005344 units=km
New Line.1612525E$GS0440-4 phases=3 Bus1=18186029.1.2.3 Bus2=109370429.1.2.3 LineCode=750_CLP_3PH_16KV_3 Length=0.224528 units=km
New Line.GS5788-2$BS0553-T phases=3 Bus1=18186197.1.2.3 Bus2=18185568.1.2.3 LineCode=1/0_CLP_3PH_16KV_3 Length=0.184598 units=km
New Line.1612526E$P5441092-1 phases=3 Bus1=18187070.1.2.3 Bus2=18187086.1.2.3 LineCode=2_CLP_3PH_16KV_3 Length=0.035683 units=km
New Line.310013682$PME6969-2 phases=3 Bus1=238494226.1.2.3 Bus2=310013684.1.2.3 LineCode=1/0_JCN_3PH_16KV_3 Length=0.030879 units=km
New Line.PME5946-4$311013502 phases=3 Bus1=18188615.1.2.3 Bus2=311013505.1.2.3 LineCode=1/0_CLP_3PH_16KV_3 Length=0.159663 units=km
New Line.GS5788-3$BS0581-T phases=3 Bus1=18186213.1.2.3 Bus2=18186493.1.2.3 LineCode=2_CLP_3PH_16KV_3 Length=0.090367 units=km
New Line.311013475$ND18188565 phases=3 Bus1=311013477.1.2.3 Bus2=18188543.1.2.3 LineCode=1/0_CLP_3PH_16KV_3 Length=0.046711 units=km
New Line.307683877$P5653403-1 phases=3 Bus1=307683880.1.2.3 Bus2=238494343.1.2.3 LineCode=1/0_JCN_3PH_16KV_3 Length=0.001589 units=km
New Line.ND18211539$ND18211096 phases=3 Bus1=18211539.1.2.3 Bus2=18211096.1.2.3 LineCode=1/0_CLP_3PH_16KV_3 Length=0.028266 units=km
New Line.207268030$P5053753-1 phases=3 Bus1=207268033.1.2.3 Bus2=98836549.1.2.3 LineCode=1/0_CLP_3PH_16KV_3 Length=0.001611 units=km
New Line.V5044449PT$RCS6094-1 phases=3 Bus1=109370732.1.2.3 Bus2=109370626.1.2.3 LineCode=750_CLP_3PH_16KV_3 Length=0.005637 units=km
New Line.217774514$P5393173-1 phases=3 Bus1=217774517.1.2.3 Bus2=18186846.1.2.3 LineCode=2_CLP_3PH_16KV_3 Length=0.002234 units=km
New Line.BS0779-R$P5139484FC-1 phases=3 Bus1=18185453.1.2.3 Bus2=18187326.1.2.3 LineCode=1/0_CLP_3PH_16KV_3 Length=0.068653 units=km
New Line.GS0440-1$ND182661450 phases=3 Bus1=109370405.1.2.3 Bus2=182661450.1.2.3 LineCode=2_CLP_3PH_16KV_3 Length=0.006214 units=km
New Line.ND18211096$FC1-1 phases=3 Bus1=18211096.1.2.3 Bus2=197620608.1.2.3 LineCode=1/0_CLP_3PH_16KV_3 Length=0.024242 units=km
New Line.ND18211096$FC2-1 phases=3 Bus1=18211096.1.2.3 Bus2=197620665.1.2.3 LineCode=1/0_CLP_3PH_16KV_3 Length=0.006625 units=km
New Line.FD45003$PME6794-1 phases=3 Bus1=200230142.1.2.3 Bus2=200230025.1.2.3 LineCode=1/0_JCN_3PH_16KV_3 Length=0.062236 units=km
New Line.BS0779-L$305494450 phases=3 Bus1=18185444.1.2.3 Bus2=305494452.1.2.3 LineCode=1/0_CLP_3PH_16KV_3 Length=0.094376 units=km
New Line.ND182661450$V5044449 phases=3 Bus1=182661450.1.2.3 Bus2=18189128.1.2.3 LineCode=2_CLP_3PH_16KV_3 Length=0.005224 units=km
New Line.PME0902-2$1446527E phases=3 Bus1=61115809.1.2.3 Bus2=186497278.1.2.3 LineCode=1/0_CLP_3PH_16KV_3 Length=0.077353 units=km
New Line.ND182661450$240403568 phases=3 Bus1=182661450.1.2.3 Bus2=240403570.1.2.3 LineCode=1/0_JCN_3PH_16KV_3 Length=0.171379 units=km
New Line.P5139484FC-1$ND18186465 phases=3 Bus1=18187327.1.2.3 Bus2=18186443.1.2.3 LineCode=1/0_CLP_3PH_16KV_3 Length=0.030659 units=km
New Line.FC1-1$E5044448 phases=3 Bus1=197620609.1.2.3 Bus2=18187134.1.2.3 LineCode=1/0_CLP_3PH_16KV_3 Length=0.009881 units=km
New Line.FC2-1$E5044448T1 phases=3 Bus1=197620666.1.2.3 Bus2=18187158.1.2.3 LineCode=1/0_CLP_3PH_16KV_3 Length=0.010112 units=km
New Line.J331A-1P$194039593 phases=3 Bus1=102650589.1.2.3 Bus2=194039595.1.2.3 LineCode=2_CLP_3PH_16KV_3 Length=0.005745 units=km
New Line.ND239603826$ND239603460 phases=3 Bus1=239603826.1.2.3 Bus2=239603460.1.2.3 LineCode=1/0_CLP_3PH_16KV_3 Length=0.026106 units=km
New Line.ND239603460$V5165701FC-1 phases=3 Bus1=239603460.1.2.3 Bus2=18187451.1.2.3 LineCode=1/0_CLP_3PH_16KV_3 Length=0.026029 units=km
New Line.ND239603365$ND239604087 phases=3 Bus1=239603365.1.2.3 Bus2=239604087.1.2.3 LineCode=1/0_CLP_3PH_16KV_3 Length=0.00716 units=km
New Line.ND239604087$FC4401-1 phases=3 Bus1=239604087.1.2.3 Bus2=224279930.1.2.3 LineCode=1/0_CLP_3PH_16KV_3 Length=0.055114 units=km
New Line.RCS6097-1CL$GS6392-2 phases=3 Bus1=223191308.1.2.3 Bus2=128171718.1.2.3 LineCode=750_CLP_3PH_16KV_3 Length=0.080042 units=km
New Line.FC4401-1$E5165877 phases=3 Bus1=224279931.1.2.3 Bus2=18187224.1.2.3 LineCode=1/0_CLP_3PH_16KV_3 Length=0.009403 units=km
New Line.ND18188272$GS6392-4 phases=3 Bus1=223191326.1.2.3 Bus2=18188250.1.2.3 LineCode=1/0_CLP_3PH_16KV_3 Length=0.110849 units=km
New Line.J756A-3P$GS6392-1 phases=3 Bus1=223191299.1.2.3 Bus2=18188878.1.2.3 LineCode=2_CLP_3PH_16KV_3 Length=0.038251 units=km
New Line.1495947EPH$ND18188511 phases=3 Bus1=18188476.1.2.3 Bus2=18188489.1.2.3 LineCode=1/0_CLP_3PH_16KV_3 Length=0.00729 units=km
New Line.4701332E$1674019EPH phases=3 Bus1=18185978.1.2.3 Bus2=139113166.1.2.3 LineCode=4_CU_3PH_16KV_3 Length=0.019575 units=km
New Line.1612865EPH$J008A-4P phases=3 Bus1=109198523.1.2.3 Bus2=109198556.1.2.3 LineCode=750_CLP_3PH_16KV_3 Length=0.072589 units=km
New Line.1674019EPH$ND139113218 phases=3 Bus1=139113167.1.2.3 Bus2=139113200.1.2.3 LineCode=1/0_CLP_3PH_16KV_3 Length=0.020364 units=km
New Line.ND152708847$1612791EPH phases=3 Bus1=152708847.1.2.3 Bus2=152708825.1.2.3 LineCode=4_CU_3PH_16KV_3 Length=0.001403 units=km
New Line.311013502$266811261 phases=3 Bus1=311013504.1.2.3 Bus2=266811263.1.2.3 LineCode=1/0_CLP_3PH_16KV_3 Length=0.14553 units=km
New Line.P5650812-1$310013682 phases=3 Bus1=310013685.1.2.3 Bus2=61115141.1.2.3 LineCode=1/0_JCN_3PH_16KV_3 Length=0.003343 units=km
New Line.196$ND61116275 phases=3 Bus1=61115186.1.2.3 Bus2=61116253.1.2.3 LineCode=1/0_CLP_3PH_16KV_3 Length=0.031131 units=km
New Line.J756A-2P$P5653218-1 phases=3 Bus1=18188886.1.2.3 Bus2=199958920.1.2.3 LineCode=1/0_CLP_3PH_16KV_3 Length=0.144885 units=km
New Line.J008A-3P$GS6090-1 phases=3 Bus1=109198548.1.2.3 Bus2=99922898.1.2.3 LineCode=750_CLP_3PH_16KV_3 Length=0.202518 units=km
New Line.J008A-1P$4490548EPH phases=3 Bus1=109198540.1.2.3 Bus2=109198418.1.2.3 LineCode=750_CLP_3PH_16KV_3 Length=0.102864 units=km
New Line.PS1077$4490548EPH phases=3 Bus1=109198417.1.2.3 Bus2=109198390.1.2.3 LineCode=4/0_CU_3PH_16KV_3 Length=0.022902 units=km
New Line.P5536254-1$GS6090-2 phases=3 Bus1=99922890.1.2.3 Bus2=18186355.1.2.3 LineCode=1/0_CLP_3PH_16KV_3 Length=0.019324 units=km
New Line.GS6090-3$V5532007 phases=3 Bus1=99922906.1.2.3 Bus2=99923316.1.2.3 LineCode=750_CLP_3PH_16KV_3 Length=0.017775 units=km
New Line.ND109198375$PS1077 phases=3 Bus1=109198398.1.2.3 Bus2=109198375.1.2.3 LineCode=4_ACSR_3PH_16KV_3 Length=0.022902 units=km
New Line.J006A-1P$GS6090-4 phases=3 Bus1=99922914.1.2.3 Bus2=99590624.1.2.3 LineCode=750_CLP_3PH_16KV_3 Length=0.023332 units=km
New Line.V5532007$ND99923211 phases=3 Bus1=99923316.1.2.3 Bus2=99923211.1.2.3 LineCode=750_CLP_3PH_16KV_3 Length=0.09476 units=km
New Line.4490549EPH$ND99923211 phases=3 Bus1=99923211.1.2.3 Bus2=18188436.1.2.3 LineCode=750_CLP_3PH_16KV_3 Length=0.026189 units=km
New Line.ND109198375$1612692E phases=3 Bus1=109198375.1.2.3 Bus2=61115795.1.2.3 LineCode=4_CU_3PH_16KV_3 Length=0.062533 units=km
New Line.ND99923211$BS6091-T phases=3 Bus1=99923211.1.2.3 Bus2=99923116.1.2.3 LineCode=1/0_CLP_3PH_16KV_3 Length=0.095095 units=km
New Line.ND103859052$1495903E phases=3 Bus1=103859052.1.2.3 Bus2=103858989.1.2.3 LineCode=4_CU_3PH_16KV_3 Length=0.009108 units=km
New Line.1612692E$P5393174-1 phases=3 Bus1=61115796.1.2.3 Bus2=61116286.1.2.3 LineCode=2_CLP_3PH_16KV_3 Length=0.027793 units=km
New Line.1495903E$P5560384-1 phases=3 Bus1=103858990.1.2.3 Bus2=103859008.1.2.3 LineCode=2_JCN_3PH_16KV_3 Length=0.105807 units=km
New Line.BS5754-1$BS6091-L phases=3 Bus1=99923108.1.2.3 Bus2=18185364.1.2.3 LineCode=1/0_CLP_3PH_16KV_3 Length=0.043111 units=km
New Line.18189380$BS6091-R phases=3 Bus1=99923125.1.2.3 Bus2=18189382.1.2.3 LineCode=2_CLP_3PH_16KV_3 Length=0.013053 units=km
New Line.ND18211021$J006A-2P phases=3 Bus1=99590640.1.2.3 Bus2=18211021.1.2.3 LineCode=350_CLP_3PH_16KV_3 Length=0.171883 units=km
New Line.ND18211021$GS5788-1 phases=3 Bus1=18211021.1.2.3 Bus2=18186205.1.2.3 LineCode=350_CLP_3PH_16KV_3 Length=0.005996 units=km
New Line.PME5946-2$ND18211021 phases=3 Bus1=18211021.1.2.3 Bus2=18188624.1.2.3 LineCode=1/0_CLP_3PH_16KV_3 Length=0.053135 units=km
New Line.BS0553-R$BS0779-T phases=3 Bus1=18185551.1.2.3 Bus2=18185461.1.2.3 LineCode=1/0_CLP_3PH_16KV_3 Length=0.07575 units=km
New Line.BS0553-L$207268030 phases=3 Bus1=18185560.1.2.3 Bus2=207268032.1.2.3 LineCode=1/0_CLP_3PH_16KV_3 Length=0.005715 units=km
New Line.J331A-2P$BS0581-L phases=3 Bus1=18186485.1.2.3 Bus2=102650605.1.2.3 LineCode=1/0_JCN_3PH_16KV_3 Length=0.046345 units=km
New Line.1612791EPH$P5632847-1 phases=3 Bus1=152708826.1.2.3 Bus2=152708785.1.2.3 LineCode=2_JCN_3PH_16KV_3 Length=0.014746 units=km
New Line.266811261$ND18188592 phases=3 Bus1=266811264.1.2.3 Bus2=18188570.1.2.3 LineCode=1/0_CLP_3PH_16KV_3 Length=0.006564 units=km
New Line.ND18211539$GS0440-5 phases=3 Bus1=109370437.1.2.3 Bus2=18211539.1.2.3 LineCode=1/0_CLP_3PH_16KV_3 Length=0.131587 units=km
New Line.ND18211553$GS0440-3 phases=3 Bus1=109370421.1.2.3 Bus2=18211553.1.2.3 LineCode=750_CLP_3PH_16KV_3 Length=0.034502 units=km
New Line.ND61155990$FD45003 phases=3 Bus1=61155990.1.2.3 Bus2=200230141.1.2.3 LineCode=4/0_ACSR_3PH_16KV_3 Length=0.002401 units=km
New Line.2144478E$PME6969-1 phases=3 Bus1=61115228.1.2.3 Bus2=238494235.1.2.3 LineCode=1/0_JCN_3PH_16KV_3 Length=0.075816 units=km
New Line.18189380$ND18188471 phases=3 Bus1=18189383.1.2.3 Bus2=18188449.1.2.3 LineCode=2_CLP_3PH_16KV_3 Length=0.0044 units=km
New Line.BS0581-R$217774514 phases=3 Bus1=18186476.1.2.3 Bus2=217774516.1.2.3 LineCode=2_CLP_3PH_16KV_3 Length=0.01841 units=km
New Line.GS0440-2$V5044449PT phases=3 Bus1=109370413.1.2.3 Bus2=109370732.1.2.3 LineCode=750_CLP_3PH_16KV_3 Length=0.04711 units=km
New Line.ND18211553$GS0081-1 phases=3 Bus1=18211553.1.2.3 Bus2=18150649.1.2.3 LineCode=750_CLP_3PH_16KV_3 Length=0.125718 units=km
New Line.2380621EP1$1204416E phases=3 Bus1=18186146.1.2.3 Bus2=18186579.1.2.3 LineCode=336_ACSR_3PH_16KV_3 Length=0.068744 units=km
New Line.4178879E$608985H phases=3 Bus1=18186783.1.2.3 Bus2=18186832.1.2.3 LineCode=336_ACSR_3PH_16KV_3 Length=0.067166 units=km
New Line.PS0700$608985H phases=3 Bus1=18186832.1.2.3 Bus2=18188971.1.2.3 LineCode=336_ACSR_3PH_16KV_3 Length=0.138811 units=km
New Line.1204433E$PS0782 phases=3 Bus1=18186753.1.2.3 Bus2=18189019.1.2.3 LineCode=336_ACSR_3PH_16KV_3 Length=0.675885 units=km
New Line.PS0700$ND18210936 phases=3 Bus1=18188972.1.2.3 Bus2=18210936.1.2.3 LineCode=336_ACSR_3PH_16KV_3 Length=0.00709 units=km
New Line.ND18210936$608989H phases=3 Bus1=18210936.1.2.3 Bus2=18185864.1.2.3 LineCode=336_ACSR_3PH_16KV_3 Length=0.046519 units=km
New Line.608989H$1836324E phases=3 Bus1=18185864.1.2.3 Bus2=18150381.1.2.3 LineCode=336_ACSR_3PH_16KV_3 Length=0.132261 units=km
New Line.4030450E$ND18210964 phases=3 Bus1=18186087.1.2.3 Bus2=18210964.1.2.3 LineCode=4/0_CU_3PH_16KV_3 Length=0.030803 units=km
New Line.ND18210964$1495946E phases=3 Bus1=18210964.1.2.3 Bus2=145945693.1.2.3 LineCode=4/0_CU_3PH_16KV_3 Length=0.030803 units=km
New Line.1495946E$ND18211252 phases=3 Bus1=145945693.1.2.3 Bus2=18211252.1.2.3 LineCode=4/0_CU_3PH_16KV_3 Length=0.09584 units=km
New Line.ND18211252$1560669E phases=3 Bus1=18211252.1.2.3 Bus2=18185893.1.2.3 LineCode=4/0_CU_3PH_16KV_3 Length=0.062226 units=km
New Line.ND18211252$1495947EPH phases=3 Bus1=18211252.1.2.3 Bus2=18188475.1.2.3 LineCode=1/0_ACSR_3PH_16KV_3 Length=0.09584 units=km
New Line.1560669E$1612682E phases=3 Bus1=18185893.1.2.3 Bus2=18185922.1.2.3 LineCode=4/0_CU_3PH_16KV_3 Length=0.045239 units=km
New Line.ND18211040$1612526E phases=3 Bus1=18211040.1.2.3 Bus2=18187069.1.2.3 LineCode=4_ACSR_3PH_16KV_3 Length=0.001607 units=km
New Line.PS0681$1446531E phases=3 Bus1=61155168.1.2.3 Bus2=61115052.1.2.3 LineCode=4/0_CU_3PH_16KV_3 Length=0.015059 units=km
New Line.ND61155946$1446531E phases=3 Bus1=61115052.1.2.3 Bus2=61155946.1.2.3 LineCode=4/0_CU_3PH_16KV_3 Length=0.020219 units=km
New Line.ND61155946$BF00449 phases=3 Bus1=61155946.1.2.3 Bus2=228076176.1.2.3 LineCode=4_ACSR_3PH_16KV_3 Length=0.073946 units=km
New Line.ND61155946$196 phases=3 Bus1=61155946.1.2.3 Bus2=61115185.1.2.3 LineCode=1/0_ACSR_3PH_16KV_3 Length=0.020219 units=km
New Line.ND61155915$ND61155946 phases=3 Bus1=61155946.1.2.3 Bus2=61155915.1.2.3 LineCode=4/0_CU_3PH_16KV_3 Length=0.072885 units=km
New Line.ND152708847$ND61155915 phases=3 Bus1=61155915.1.2.3 Bus2=152708847.1.2.3 LineCode=4/0_CU_3PH_16KV_3 Length=0.035733 units=km
New Line.1612792E$ND61155915 phases=3 Bus1=61155915.1.2.3 Bus2=61115104.1.2.3 LineCode=4_CU_3PH_16KV_3 Length=0.034292 units=km
New Line.ND61155989$1446527E phases=3 Bus1=61155989.1.2.3 Bus2=61115808.1.2.3 LineCode=1/0_ACSR_3PH_16KV_3 Length=0.052748 units=km
New Line.ND61155220$ND61155989 phases=3 Bus1=61155989.1.2.3 Bus2=61155220.1.2.3 LineCode=4/0_CU_3PH_16KV_3 Length=0.050769 units=km
New Line.PS0138$ND61155220 phases=3 Bus1=61155220.1.2.3 Bus2=61155250.1.2.3 LineCode=4/0_CU_3PH_16KV_3 Length=0.04845 units=km
New Line.1612682E$4283822E phases=3 Bus1=18185922.1.2.3 Bus2=18188857.1.2.3 LineCode=4/0_CU_3PH_16KV_3 Length=0.006181 units=km
New Line.4283822E$1612683E phases=3 Bus1=18188857.1.2.3 Bus2=18185951.1.2.3 LineCode=4/0_CU_3PH_16KV_3 Length=0.036894 units=km
New Line.1612683E$ND18211322 phases=3 Bus1=18185951.1.2.3 Bus2=18211322.1.2.3 LineCode=4/0_CU_3PH_16KV_3 Length=0.049007 units=km
New Line.ND18211322$1612865EPH phases=3 Bus1=18211322.1.2.3 Bus2=109198518.1.2.3 LineCode=4/0_CU_3PH_16KV_3 Length=0.048828 units=km
New Line.ND18211322$4701332E phases=3 Bus1=18211322.1.2.3 Bus2=18185978.1.2.3 LineCode=4/0_CU_3PH_16KV_3 Length=0.035199 units=km
New Line.1446529E$ND152708847 phases=3 Bus1=152708847.1.2.3 Bus2=200230272.1.2.3 LineCode=4/0_CU_3PH_16KV_3 Length=0.013627 units=km
New Line.BF00449$1836197E phases=3 Bus1=228076177.1.2.3 Bus2=61115079.1.2.3 LineCode=4_ACSR_3PH_16KV_3 Length=0.018931 units=km
New Line.ND103859052$ND109198375 phases=3 Bus1=109198375.1.2.3 Bus2=103859052.1.2.3 LineCode=4/0_CU_3PH_16KV_3 Length=0.071641 units=km
New Line.ND61156299$ND103859052 phases=3 Bus1=103859052.1.2.3 Bus2=61156299.1.2.3 LineCode=4/0_CU_3PH_16KV_3 Length=0.042142 units=km
New Line.PS0350$4490549EPH phases=3 Bus1=18188435.1.2.3 Bus2=18189353.1.2.3 LineCode=4_ACSR_3PH_16KV_3 Length=0.05512 units=km
New Line.ND61156299$2144478E phases=3 Bus1=61156299.1.2.3 Bus2=61115227.1.2.3 LineCode=4/0_CU_3PH_16KV_3 Length=0.001953 units=km
New Line.ND61156196$ND61156299 phases=3 Bus1=61156299.1.2.3 Bus2=61156196.1.2.3 LineCode=4/0_CU_3PH_16KV_3 Length=0.039739 units=km
New Line.ND61156196$RCS0697 phases=3 Bus1=61156196.1.2.3 Bus2=50875908.1.2.3 LineCode=4/0_CU_3PH_16KV_3 Length=0.027764 units=km
New Line.1446532E$ND61156196 phases=3 Bus1=61156196.1.2.3 Bus2=61115217.1.2.3 LineCode=4/0_CU_3PH_16KV_3 Length=0.038078 units=km
New Line.ND61155990$1446529E phases=3 Bus1=200230272.1.2.3 Bus2=61155990.1.2.3 LineCode=4/0_CU_3PH_16KV_3 Length=0.099104 units=km
New Line.PS0350$ND214873041 phases=3 Bus1=18189354.1.2.3 Bus2=214873041.1.2.3 LineCode=4_ACSR_3PH_16KV_3 Length=0.016452 units=km
New Line.PS0681$1446532E phases=3 Bus1=61115217.1.2.3 Bus2=61155169.1.2.3 LineCode=4/0_CU_3PH_16KV_3 Length=0.071696 units=km
New Line.ND214873041$ND18211040 phases=3 Bus1=214873041.1.2.3 Bus2=18211040.1.2.3 LineCode=4_ACSR_3PH_16KV_3 Length=0.078064 units=km
New Line.ND61155990$1714205E phases=3 Bus1=61155990.1.2.3 Bus2=61115129.1.2.3 LineCode=4_ACSR_3PH_16KV_3 Length=0.049248 units=km
New Line.ND61155990$ND61155989 phases=3 Bus1=61155990.1.2.3 Bus2=61155989.1.2.3 LineCode=4/0_CU_3PH_16KV_3 Length=0.052748 units=km
New Line.BS5754-1$18189008 phases=3 Bus1=18185365.1.2.3 Bus2=-77777718185365.1.2.3 LineCode=2_CLP_3PH_16KV_3 Length=0.031699 units=km

! Switches
New Line.5488453:PME5946-3 phases=3 Bus1=18188598.1.2.3 Bus2=18188606.1.2.3 switch=y r1=0.001 x1=0.001 r0=0.001 x0=0.001 Length=0.001 units=km
New Line.5488453:PME5946-4 phases=3 Bus1=18188597.1.2.3 Bus2=18188615.1.2.3 switch=y r1=0.001 x1=0.001 r0=0.001 x0=0.001 Length=0.001 units=km
New Line.5436424:GS5788-4 phases=3 Bus1=18186190.1.2.3 Bus2=18186221.1.2.3 switch=y r1=0.001 x1=0.001 r0=0.001 x0=0.001 Length=0.001 units=km enabled=false
New Line.5139484:P5139484FC-1 phases=3 Bus1=18187326.1.2.3 Bus2=18187327.1.2.3 switch=y r1=0.001 x1=0.001 r0=0.001 x0=0.001 Length=0.001 units=km
New Line.5044448:FC1-1 phases=3 Bus1=197620608.1.2.3 Bus2=197620609.1.2.3 switch=y r1=0.001 x1=0.001 r0=0.001 x0=0.001 Length=0.001 units=km
New Line.5044448:FC2-1 phases=3 Bus1=197620665.1.2.3 Bus2=197620666.1.2.3 switch=y r1=0.001 x1=0.001 r0=0.001 x0=0.001 Length=0.001 units=km
New Line.2247258E:RCS0697 phases=3 Bus1=50875908.1.2.3 Bus2=50875907.1.2.3 switch=y r1=0.001 x1=0.001 r0=0.001 x0=0.001 Length=0.001 units=km enabled=false
New Line.5165701:V5165701FC-1 phases=3 Bus1=18187451.1.2.3 Bus2=18187452.1.2.3 switch=y r1=0.001 x1=0.001 r0=0.001 x0=0.001 Length=0.001 units=km
New Line.5165877:FC4401-1 phases=3 Bus1=224279930.1.2.3 Bus2=224279931.1.2.3 switch=y r1=0.001 x1=0.001 r0=0.001 x0=0.001 Length=0.001 units=km
New Line.5045756:RCS6097-1 phases=3 Bus1=128171718.1.2.3 Bus2=128171717.1.2.3 switch=y r1=0.001 x1=0.001 r0=0.001 x0=0.001 Length=0.001 units=km enabled=false
New Line.MINNOW$SEABASS_PS0782$PS0782 phases=3 Bus1=18189020.1.2.3 Bus2=-77777718189020.1.2.3 switch=y r1=0.001 x1=0.001 r0=0.001 x0=0.001 Length=0.001 units=km
New Line.MINNOW$KATHLEEN_RCS0697$RCS0697 phases=3 Bus1=50875907.1.2.3 Bus2=-77777750875907.1.2.3 switch=y r1=0.001 x1=0.001 r0=0.001 x0=0.001 Length=0.001 units=km
New Line.MINNOW$SALMON_RCS6097-1$RCS6097-1 phases=3 Bus1=128171717.1.2.3 Bus2=-777777128171717.1.2.3 switch=y r1=0.001 x1=0.001 r0=0.001 x0=0.001 Length=0.001 units=km
New Line.MINNOW$BARRACUDA_GS5788-4$GS5788-4 phases=3 Bus1=18186221.1.2.3 Bus2=-77777718186221.1.2.3 switch=y r1=0.001 x1=0.001 r0=0.001 x0=0.001 Length=0.001 units=km
New Line.18186630$18186638 phases=3 Bus1=18186617.1.2.3 Bus2=18186611.1.2.3 switch=y r1=0.001 x1=0.001 r0=0.001 x0=0.001 Length=0.001 units=km
New Line.18186622$18186630 phases=3 Bus1=18186611.1.2.3 Bus2=18186610.1.2.3 switch=y r1=0.001 x1=0.001 r0=0.001 x0=0.001 Length=0.001 units=km
New Line.200230200$P5653227 phases=3 Bus1=200230193.1.2.3 Bus2=200230194.1.2.3 switch=y r1=0.001 x1=0.001 r0=0.001 x0=0.001 Length=0.001 units=km
New Line.GS6016-1$GS6016-2 phases=3 Bus1=239603652.1.2.3 Bus2=239603651.1.2.3 switch=y r1=0.001 x1=0.001 r0=0.001 x0=0.001 Length=0.001 units=km
New Line.GS6016-2$GS6016-3 phases=3 Bus1=239603652.1.2.3 Bus2=239603658.1.2.3 switch=y r1=0.001 x1=0.001 r0=0.001 x0=0.001 Length=0.001 units=km
New Line.GS6016-3$GS6016-4 phases=3 Bus1=239603658.1.2.3 Bus2=239603664.1.2.3 switch=y r1=0.001 x1=0.001 r0=0.001 x0=0.001 Length=0.001 units=km
New Line.18185680$PME0904-1 phases=3 Bus1=18185655.1.2.3 Bus2=18185656.1.2.3 switch=y r1=0.001 x1=0.001 r0=0.001 x0=0.001 Length=0.001 units=km
New Line.18186203$GS5788-2 phases=3 Bus1=18186177.1.2.3 Bus2=18186178.1.2.3 switch=y r1=0.001 x1=0.001 r0=0.001 x0=0.001 Length=0.001 units=km
New Line.18188456$P5488279 phases=3 Bus1=18188449.1.2.3 Bus2=18188450.1.2.3 switch=y r1=0.001 x1=0.001 r0=0.001 x0=0.001 Length=0.001 units=km
New Line.PME5946-4$PME5946-3 phases=3 Bus1=18188598.1.2.3 Bus2=18188597.1.2.3 switch=y r1=0.001 x1=0.001 r0=0.001 x0=0.001 Length=0.001 units=km
New Line.PME6969-2$PME6969-4 phases=3 Bus1=238494200.1.2.3 Bus2=238494199.1.2.3 switch=y r1=0.001 x1=0.001 r0=0.001 x0=0.001 Length=0.001 units=km
New Line.GS5788-2$GS5788-3 phases=3 Bus1=18186178.1.2.3 Bus2=18186184.1.2.3 switch=y r1=0.001 x1=0.001 r0=0.001 x0=0.001 Length=0.001 units=km
New Line.GS5788-3$GS5788-4 phases=3 Bus1=18186184.1.2.3 Bus2=18186190.1.2.3 switch=y r1=0.001 x1=0.001 r0=0.001 x0=0.001 Length=0.001 units=km
New Line.307683877 phases=3 Bus1=307683879.1.2.3 Bus2=307683880.1.2.3 switch=y r1=0.001 x1=0.001 r0=0.001 x0=0.001 Length=0.001 units=km
New Line.311013475 phases=3 Bus1=311013478.1.2.3 Bus2=311013477.1.2.3 switch=y r1=0.001 x1=0.001 r0=0.001 x0=0.001 Length=0.001 units=km
New Line.310013682 phases=3 Bus1=310013684.1.2.3 Bus2=310013685.1.2.3 switch=y r1=0.001 x1=0.001 r0=0.001 x0=0.001 Length=0.001 units=km
New Line.311013502 phases=3 Bus1=311013505.1.2.3 Bus2=311013504.1.2.3 switch=y r1=0.001 x1=0.001 r0=0.001 x0=0.001 Length=0.001 units=km
New Line.109370419$109370427 phases=3 Bus1=109370392.1.2.3 Bus2=109370386.1.2.3 switch=y r1=0.001 x1=0.001 r0=0.001 x0=0.001 Length=0.001 units=km
New Line.18188577$P5488455 phases=3 Bus1=18188570.1.2.3 Bus2=18188571.1.2.3 switch=y r1=0.001 x1=0.001 r0=0.001 x0=0.001 Length=0.001 units=km
New Line.217774514 phases=3 Bus1=217774516.1.2.3 Bus2=217774517.1.2.3 switch=y r1=0.001 x1=0.001 r0=0.001 x0=0.001 Length=0.001 units=km
New Line.102650586$102650602 phases=3 Bus1=102650606.1.2.3 Bus2=102650590.1.2.3 switch=y r1=0.001 x1=0.001 r0=0.001 x0=0.001 Length=0.001 units=km
New Line.102650602$102650594 phases=3 Bus1=102650606.1.2.3 Bus2=102650598.1.2.3 switch=y r1=0.001 x1=0.001 r0=0.001 x0=0.001 Length=0.001 units=km
New Line.18150647$GS0081-2 phases=3 Bus1=18150621.1.2.3 Bus2=18150622.1.2.3 switch=y r1=0.001 x1=0.001 r0=0.001 x0=0.001 Length=0.001 units=km
New Line.305494450 phases=3 Bus1=305494452.1.2.3 Bus2=305494453.1.2.3 switch=y r1=0.001 x1=0.001 r0=0.001 x0=0.001 Length=0.001 units=km
New Line.GS0081-2$GS0081-3 phases=3 Bus1=18150622.1.2.3 Bus2=18150628.1.2.3 switch=y r1=0.001 x1=0.001 r0=0.001 x0=0.001 Length=0.001 units=km
New Line.PME6794-4$PME6794-2 phases=3 Bus1=200229989.1.2.3 Bus2=200229990.1.2.3 switch=y r1=0.001 x1=0.001 r0=0.001 x0=0.001 Length=0.001 units=km
New Line.4990498E:PS0700 phases=3 Bus1=18188971.1.2.3 Bus2=18188972.1.2.3 switch=y r1=0.001 x1=0.001 r0=0.001 x0=0.001 Length=0.001 units=km
New Line.5045752:RCS6096-1 phases=3 Bus1=128141652.1.2.3 Bus2=128141653.1.2.3 switch=y r1=0.001 x1=0.001 r0=0.001 x0=0.001 Length=0.001 units=km
New Line.5045754:GS6016-2 phases=3 Bus1=239603681.1.2.3 Bus2=239603652.1.2.3 switch=y r1=0.001 x1=0.001 r0=0.001 x0=0.001 Length=0.001 units=km
New Line.5045754:GS6016-1 phases=3 Bus1=239603651.1.2.3 Bus2=239603672.1.2.3 switch=y r1=0.001 x1=0.001 r0=0.001 x0=0.001 Length=0.001 units=km
New Line.5045754:GS6016-3 phases=3 Bus1=239603658.1.2.3 Bus2=239603690.1.2.3 switch=y r1=0.001 x1=0.001 r0=0.001 x0=0.001 Length=0.001 units=km