! OpenDSS script generated from multiconductor network
Clear

New Circuit.mc_network basekv=12.0 pu=1.000000 angle=0.00 frequency=60.0 phases=3 Mvasc3=143993 Mvasc1=47997.6
~ bus1=-8888882179093.1.2.3

! Line codes
New LineCode.1000_CLP_3PH_12KV_3 nphases=3 units=km Rmatrix=[ 0.038652 | 0 0.038652 | 0 0 0.038652 ] Xmatrix=[ 0.058508 | 0 0.058508 | 0 0 0.058508 ] Cmatrix=[ 0 | 0 0 | 0 0 0 ]
New LineCode.1/0_JCN_3PH_12KV_3 nphases=3 units=km Rmatrix=[ 0.093583 | 0 0.093583 | 0 0 0.093583 ] Xmatrix=[ 0.028603 | 0 0.028603 | 0 0 0.028603 ] Cmatrix=[ 0 | 0 0 | 0 0 0 ]
New LineCode.1/0_CLP_3PH_12KV_3 nphases=3 units=km Rmatrix=[ 0.009584 | 0 0.009584 | 0 0 0.009584 ] Xmatrix=[ 0.002929 | 0 0.002929 | 0 0 0.002929 ] Cmatrix=[ 0 | 0 0 | 0 0 0 ]
New LineCode.2_CLP_1PH_12KV_1 nphases=1 units=km Rmatrix=[ 0.086314 ] Xmatrix=[ 0.018193 ] Cmatrix=[ 0 ]
New LineCode.750_CLP_3PH_12KV_3 nphases=3 units=km Rmatrix=[ 0.061643 | 0 0.061643 | 0 0 0.061643 ] Xmatrix=[ 0.075706 | 0 0.075706 | 0 0 0.075706 ] Cmatrix=[ 0 | 0 0 | 0 0 0 ]
New LineCode.2_CLP_3PH_12KV_3 nphases=3 units=km Rmatrix=[ 0.214726 | 0 0.214726 | 0 0 0.214726 ] Xmatrix=[ 0.04526 | 0 0.04526 | 0 0 0.04526 ] Cmatrix=[ 0 | 0 0 | 0 0 0 ]
New LineCode.1/0_CLP_2PH_12KV_2 nphases=2 units=km Rmatrix=[ 0.042545 | 0 0.042545 ] Xmatrix=[ 0.013004 | 0 0.013004 ] Cmatrix=[ 0 | 0 0 ]
New LineCode.1/0_CLP_1PH_12KV_1 nphases=1 units=km Rmatrix=[ 0.096075 ] Xmatrix=[ 0.029365 ] Cmatrix=[ 0 ]
New LineCode.1/0_JCN_2PH_12KV_2 nphases=2 units=km Rmatrix=[ 0.001563 | 0 0.001563 ] Xmatrix=[ 0.000478 | 0 0.000478 ] Cmatrix=[ 0 | 0 0 ]
New LineCode.2_JCN_2PH_12KV_2 nphases=2 units=km Rmatrix=[ 0.006009 | 0 0.006009 ] Xmatrix=[ 0.001267 | 0 0.001267 ] Cmatrix=[ 0 | 0 0 ]
New LineCode.1/0_JCN_1PH_12KV_1 nphases=1 units=km Rmatrix=[ 0.001197 ] Xmatrix=[ 0.000366 ] Cmatrix=[ 0 ]
New LineCode.2_JCN_1PH_12KV_1 nphases=1 units=km Rmatrix=[ 0.157806 ] Xmatrix=[ 0.033262 ] Cmatrix=[ 0 ]
New LineCode.2_CLP_2PH_12KV_2 nphases=2 units=km Rmatrix=[ 0.415142 | 0 0.415142 ] Xmatrix=[ 0.087504 | 0 0.087504 ] Cmatrix=[ 0 | 0 0 ]
New LineCode.UNK_UNK_1PH_12KV_1 nphases=1 units=km Rmatrix=[ 0.000603 ] Xmatrix=[ 0.000184 ] Cmatrix=[ 0 ]

! Lines
New Line.13676$GS6176-3 phases=3 Bus1=-8888882179093.1.2.3 Bus2=99387875.1.2.3 LineCode=1000_CLP_3PH_12KV_3 Length=1.51003 units=km
New Line.GS6176-2$GS6177-3 phases=3 Bus1=99387867.1.2.3 Bus2=99386904.1.2.3 LineCode=1000_CLP_3PH_12KV_3 Length=2.19231 units=km
New Line.GS6178-1$GS6177-2 phases=3 Bus1=99386896.1.2.3 Bus2=98898659.1.2.3 LineCode=1000_CLP_3PH_12KV_3 Length=1.25069 units=km
New Line.GS6178-2$GS6179-1 phases=3 Bus1=98898667.1.2.3 Bus2=166779802.1.2.3 LineCode=1000_CLP_3PH_12KV_3 Length=1.0142 units=km
New Line.GS6182-1$GS6178-3 phases=3 Bus1=98898675.1.2.3 Bus2=99388169.1.2.3 LineCode=1000_CLP_3PH_12KV_3 Length=0.06485 units=km
New Line.0190373$GS6179-3 phases=3 Bus1=166779820.1.2.3 Bus2=149419932.1.2.3 LineCode=1/0_JCN_3PH_12KV_3 Length=0.035799 units=km
New Line.GS6179-4$ND165288096 phases=3 Bus1=166779829.1.2.3 Bus2=165288096.1.2.3 LineCode=1000_CLP_3PH_12KV_3 Length=0.564584 units=km
New Line.ND206332173$ND165288096 phases=3 Bus1=165288096.1.2.3 Bus2=206332173.1.2.3 LineCode=1000_CLP_3PH_12KV_3 Length=0.456654 units=km
New Line.GS2403-3$ND206332173 phases=3 Bus1=206332173.1.2.3 Bus2=206332053.1.2.3 LineCode=1000_CLP_3PH_12KV_3 Length=0.026227 units=km
New Line.ND206332173$236539452 phases=3 Bus1=206332173.1.2.3 Bus2=236539454.1.2.3 LineCode=1/0_CLP_3PH_12KV_3 Length=0.098793 units=km
New Line.236539452$P5388018-1 phases=3 Bus1=236539455.1.2.3 Bus2=29772069.1.2.3 LineCode=1/0_CLP_3PH_12KV_3 Length=0.003382 units=km
New Line.P5587365-2$ND101939375 phases=1 Bus1=101752590.2 Bus2=101939375.2 LineCode=2_CLP_1PH_12KV_1 Length=0.000729 units=km
New Line.261655715$ND44945183 phases=1 Bus1=44945183.1 Bus2=261655717.1 LineCode=2_CLP_1PH_12KV_1 Length=0.179651 units=km
New Line.P5391239-2$ND44945183 phases=1 Bus1=44945183.1 Bus2=44857691.1 LineCode=2_CLP_1PH_12KV_1 Length=0.124895 units=km
New Line.GS2403-2$0189751 phases=3 Bus1=206332044.1.2.3 Bus2=161562069.1.2.3 LineCode=1/0_JCN_3PH_12KV_3 Length=0.048015 units=km
New Line.GS2403-4$PME2366-1 phases=3 Bus1=206332062.1.2.3 Bus2=169126462.1.2.3 LineCode=750_CLP_3PH_12KV_3 Length=0.451606 units=km
New Line.RCS2367-4$PME2366-4 phases=3 Bus1=169126444.1.2.3 Bus2=44905999.1.2.3 LineCode=750_CLP_3PH_12KV_3 Length=0.335223 units=km
New Line.ND44945189$PME2366-2 phases=3 Bus1=169126453.1.2.3 Bus2=44945189.1.2.3 LineCode=1/0_CLP_3PH_12KV_3 Length=0.192519 units=km
New Line.ND94919271$PME2366-3 phases=3 Bus1=169126435.1.2.3 Bus2=94919271.1.2.3 LineCode=1/0_CLP_3PH_12KV_3 Length=0.013646 units=km
New Line.ND44945189$ND164097141 phases=3 Bus1=44945189.1.2.3 Bus2=164097141.1.2.3 LineCode=1/0_CLP_3PH_12KV_3 Length=0.26297 units=km
New Line.ND94919271$P5390978T1 phases=3 Bus1=94919271.1.2.3 Bus2=44944201.1.2.3 LineCode=1/0_CLP_3PH_12KV_3 Length=0.009408 units=km
New Line.ND44945189$ND44944400 phases=3 Bus1=44945189.1.2.3 Bus2=44944400.1.2.3 LineCode=1/0_CLP_3PH_12KV_3 Length=0.097972 units=km
New Line.ND94919271$ND94919261 phases=3 Bus1=94919271.1.2.3 Bus2=94919261.1.2.3 LineCode=2_CLP_3PH_12KV_3 Length=0.016763 units=km
New Line.RCS2367-1$PME2387-1 phases=3 Bus1=44906017.1.2.3 Bus2=160244206.1.2.3 LineCode=750_CLP_3PH_12KV_3 Length=0.422763 units=km
New Line.ND164097141$PME2759-1 phases=3 Bus1=164097141.1.2.3 Bus2=44856819.1.2.3 LineCode=1/0_CLP_3PH_12KV_3 Length=0.345836 units=km
New Line.ND164097141$PME2391-1 phases=1 Bus1=164097141.3 Bus2=44857177.3 LineCode=2_CLP_1PH_12KV_1 Length=0.005518 units=km
New Line.ND164097141$P5427338-1 phases=2 Bus1=164097141.1.3 Bus2=44857442.1.3 LineCode=1/0_CLP_2PH_12KV_2 Length=0.02272 units=km
New Line.ND44944400$P5419534-1 phases=3 Bus1=44944400.1.2.3 Bus2=44857490.1.2.3 LineCode=1/0_CLP_3PH_12KV_3 Length=0.127521 units=km
New Line.P5362820-1$ND94919261 phases=1 Bus1=94919261.3 Bus2=44859076.3 LineCode=2_CLP_1PH_12KV_1 Length=0.147848 units=km
New Line.ND94919261$P5362817-1 phases=1 Bus1=94919261.1 Bus2=44859292.1 LineCode=2_CLP_1PH_12KV_1 Length=0.681266 units=km
New Line.44944367$ND44944400 phases=1 Bus1=44944400.1 Bus2=44944369.1 LineCode=2_CLP_1PH_12KV_1 Length=0.005817 units=km
New Line.RCS2367-2$ND152204018 phases=3 Bus1=44906008.1.2.3 Bus2=152204018.1.2.3 LineCode=750_CLP_3PH_12KV_3 Length=0.134696 units=km
New Line.RCS2367-3$ND182568540 phases=3 Bus1=44905990.1.2.3 Bus2=182568540.1.2.3 LineCode=2_CLP_3PH_12KV_3 Length=0.005567 units=km
New Line.J048A-2P$ND152204018 phases=3 Bus1=152204018.1.2.3 Bus2=100441575.1.2.3 LineCode=1/0_JCN_3PH_12KV_3 Length=0.159765 units=km
New Line.P5390979$ND182568540 phases=1 Bus1=182568540.3 Bus2=179519807.3 LineCode=2_CLP_1PH_12KV_1 Length=7.7e-05 units=km
New Line.P5391395-1$P5391394-2 phases=1 Bus1=44858555.3 Bus2=44858618.3 LineCode=1/0_CLP_1PH_12KV_1 Length=0.09066 units=km
New Line.44902670$44902752 phases=1 Bus1=44902672.2 Bus2=44902754.2 LineCode=2_CLP_1PH_12KV_1 Length=0.126278 units=km
New Line.ND44976192$44903304 phases=1 Bus1=44976192.1 Bus2=44903306.1 LineCode=1/0_CLP_1PH_12KV_1 Length=0.13365 units=km
New Line.P5475465-1$44903642 phases=1 Bus1=44903668.2 Bus2=44903645.2 LineCode=2_CLP_1PH_12KV_1 Length=0.000118 units=km
New Line.44930671$44931733 phases=1 Bus1=44930673.1 Bus2=44931735.1 LineCode=2_CLP_1PH_12KV_1 Length=0.110529 units=km
New Line.ND44976192$44944203 phases=1 Bus1=44976192.1 Bus2=44944206.1 LineCode=1/0_CLP_1PH_12KV_1 Length=0.002676 units=km
New Line.94551496$P5563949-1 phases=1 Bus1=94551499.2 Bus2=94551327.2 LineCode=2_CLP_1PH_12KV_1 Length=0.000689 units=km
New Line.ND101939375$101752696 phases=1 Bus1=101939375.2 Bus2=101752699.2 LineCode=2_CLP_1PH_12KV_1 Length=0.000636 units=km
New Line.ND185540199$ND152204018 phases=3 Bus1=152204018.1.2.3 Bus2=185540199.1.2.3 LineCode=750_CLP_3PH_12KV_3 Length=0.021708 units=km
New Line.P5390715-1$PME2391-1 phases=1 Bus1=44857176.3 Bus2=44857226.3 LineCode=2_CLP_1PH_12KV_1 Length=0.067306 units=km
New Line.44944367$FC4066-1 phases=1 Bus1=44944370.1 Bus2=44930617.1 LineCode=2_CLP_1PH_12KV_1 Length=0.002082 units=km
New Line.ND182568540$ND44975994 phases=3 Bus1=182568540.1.2.3 Bus2=44975994.1.2.3 LineCode=1/0_CLP_3PH_12KV_3 Length=0.235895 units=km
New Line.ND44975994$180102618 phases=3 Bus1=44975994.1.2.3 Bus2=180102620.1.2.3 LineCode=1/0_CLP_3PH_12KV_3 Length=0.338755 units=km
New Line.P5390980$ND185540199 phases=2 Bus1=185540199.1.3 Bus2=185540184.1.3 LineCode=1/0_JCN_2PH_12KV_2 Length=0.002211 units=km
New Line.ND44975994$PMS2392-1 phases=1 Bus1=44975994.3 Bus2=44859026.3 LineCode=1/0_CLP_1PH_12KV_1 Length=0.005298 units=km
New Line.P5362819-1$P5362820-2 phases=1 Bus1=44859085.3 Bus2=44859148.3 LineCode=2_CLP_1PH_12KV_1 Length=0.168539 units=km
New Line.P5362816-1$P5362817-2 phases=1 Bus1=44859301.1 Bus2=44859364.1 LineCode=2_CLP_1PH_12KV_1 Length=0.169054 units=km
New Line.PMH2958-2$PME2387-4 phases=3 Bus1=160244188.1.2.3 Bus2=44902543.1.2.3 LineCode=1/0_CLP_3PH_12KV_3 Length=0.127559 units=km
New Line.RCS2368-1$ND185540199 phases=3 Bus1=185540199.1.2.3 Bus2=70164265.1.2.3 LineCode=750_CLP_3PH_12KV_3 Length=0.008774 units=km
New Line.ND158843664$PME2387-3 phases=3 Bus1=160244179.1.2.3 Bus2=158843664.1.2.3 LineCode=1/0_CLP_3PH_12KV_3 Length=0.003083 units=km
New Line.ND170120049$PME2387-2 phases=3 Bus1=160244197.1.2.3 Bus2=170120049.1.2.3 LineCode=750_CLP_3PH_12KV_3 Length=0.355114 units=km
New Line.P5433055-1$PME2759-2 phases=1 Bus1=44856810.2 Bus2=44856888.2 LineCode=2_CLP_1PH_12KV_1 Length=0.072383 units=km
New Line.FC4066-1$44944377 phases=1 Bus1=44930618.1 Bus2=44944380.1 LineCode=2_CLP_1PH_12KV_1 Length=0.001238 units=km
New Line.ND158843664$P5390988 phases=2 Bus1=158843664.1.3 Bus2=158843678.1.3 LineCode=2_JCN_2PH_12KV_2 Length=0.005356 units=km
New Line.ND170120049$P5390989PT phases=1 Bus1=170120049.3 Bus2=170120060.3 LineCode=1/0_JCN_1PH_12KV_1 Length=0.001692 units=km
New Line.227131946$P5390715-2 phases=1 Bus1=44857235.3 Bus2=227131948.3 LineCode=2_CLP_1PH_12KV_1 Length=0.092311 units=km
New Line.180102618$P5387797-1 phases=3 Bus1=180102621.1.2.3 Bus2=44858762.1.2.3 LineCode=1/0_CLP_3PH_12KV_3 Length=0.002536 units=km
New Line.RCS2388-4$ND170120049 phases=3 Bus1=170120049.1.2.3 Bus2=44931306.1.2.3 LineCode=750_CLP_3PH_12KV_3 Length=0.008996 units=km
New Line.ND158843664$ND44944998 phases=3 Bus1=158843664.1.2.3 Bus2=44944998.1.2.3 LineCode=1/0_CLP_3PH_12KV_3 Length=0.0042 units=km
New Line.PMS2392-1$ND44945290 phases=1 Bus1=44859027.3 Bus2=44945290.3 LineCode=1/0_CLP_1PH_12KV_1 Length=0.005298 units=km
New Line.ND100069762$ND44944998 phases=1 Bus1=44944998.3 Bus2=100069762.3 LineCode=1/0_CLP_1PH_12KV_1 Length=0.005499 units=km
New Line.J048A-1P$PME6302-4 phases=3 Bus1=100441551.1.2.3 Bus2=100441352.1.2.3 LineCode=2_CLP_3PH_12KV_3 Length=0.182923 units=km
New Line.ND44944998$P5391232-2 phases=1 Bus1=44944998.2 Bus2=44857835.2 LineCode=2_CLP_1PH_12KV_1 Length=0.368285 units=km
New Line.P5390386-1$ND44945290 phases=1 Bus1=44945290.3 Bus2=44858810.3 LineCode=1/0_CLP_1PH_12KV_1 Length=0.202036 units=km
New Line.P5390385-1$ND44945290 phases=1 Bus1=44945290.3 Bus2=44858954.3 LineCode=1/0_CLP_1PH_12KV_1 Length=0.113417 units=km
New Line.ND101939375$101752721 phases=1 Bus1=101939375.2 Bus2=101752723.2 LineCode=2_CLP_1PH_12KV_1 Length=0.085315 units=km
New Line.104798290$148687761 phases=1 Bus1=148687763.3 Bus2=104798292.3 LineCode=2_CLP_1PH_12KV_1 Length=0.139533 units=km
New Line.148687896$148687933 phases=1 Bus1=148687898.3 Bus2=148687935.3 LineCode=2_JCN_1PH_12KV_1 Length=0.141085 units=km
New Line.P5384327-2$240245604 phases=1 Bus1=44929027.1 Bus2=240245607.1 LineCode=1/0_CLP_1PH_12KV_1 Length=0.122454 units=km
New Line.P5391235-1$P5391234-1 phases=1 Bus1=44857970.2 Bus2=44858042.2 LineCode=2_CLP_1PH_12KV_1 Length=0.16506 units=km
New Line.P5432829-2$190718016 phases=1 Bus1=190718019.2 Bus2=44928235.2 LineCode=2_CLP_1PH_12KV_1 Length=0.141996 units=km
New Line.P5497723-2$218387076 phases=1 Bus1=218387079.1 Bus2=44931666.1 LineCode=2_CLP_1PH_12KV_1 Length=0.003186 units=km
New Line.90681684$90681787 phases=1 Bus1=90681686.1 Bus2=90681789.1 LineCode=2_CLP_1PH_12KV_1 Length=0.12826 units=km
New Line.90681709$90681887 phases=1 Bus1=90681711.1 Bus2=90681889.1 LineCode=2_CLP_1PH_12KV_1 Length=0.073895 units=km
New Line.90682281$P5563948-2 phases=1 Bus1=90682284.2 Bus2=90682176.2 LineCode=2_CLP_1PH_12KV_1 Length=0.00112 units=km
New Line.P5587372-1$104798090 phases=1 Bus1=104797445.1 Bus2=104798093.1 LineCode=2_CLP_1PH_12KV_1 Length=0.001219 units=km
New Line.P5391240-2$261655715 phases=1 Bus1=261655718.1 Bus2=44857763.1 LineCode=2_CLP_1PH_12KV_1 Length=0.002025 units=km
New Line.P5391399-1$P5391400-2 phases=1 Bus1=44858258.3 Bus2=44858339.3 LineCode=1/0_CLP_1PH_12KV_1 Length=0.107878 units=km
New Line.P5475147-1$44902752 phases=1 Bus1=44902755.2 Bus2=44902778.2 LineCode=2_CLP_1PH_12KV_1 Length=0.000846 units=km
New Line.P5362818-1$P5362819-2 phases=1 Bus1=44859157.3 Bus2=44859220.3 LineCode=2_CLP_1PH_12KV_1 Length=0.176939 units=km
New Line.P5362815-2$P5362816-2 phases=1 Bus1=44859373.1 Bus2=44902385.1 LineCode=2_CLP_1PH_12KV_1 Length=0.165194 units=km
New Line.ND44945290$P5391276-2 phases=1 Bus1=44945290.3 Bus2=44902457.3 LineCode=1/0_CLP_1PH_12KV_1 Length=0.134857 units=km
New Line.44944377$44930661 phases=1 Bus1=44944379.1 Bus2=44930663.1 LineCode=2_CLP_1PH_12KV_1 Length=0.102582 units=km
New Line.RCS2368-4$ND44945218 phases=3 Bus1=70164247.1.2.3 Bus2=44945218.1.2.3 LineCode=1/0_CLP_3PH_12KV_3 Length=0.001655 units=km
New Line.PMH2958-3$ND44975963 phases=3 Bus1=44902526.1.2.3 Bus2=44975963.1.2.3 LineCode=2_CLP_3PH_12KV_3 Length=0.00595 units=km
New Line.J048A-3P$PME5814-4 phases=3 Bus1=100441559.1.2.3 Bus2=90681078.1.2.3 LineCode=2_CLP_3PH_12KV_3 Length=0.234757 units=km
New Line.J048A-4P$V5536048 phases=1 Bus1=100441567.3 Bus2=100441708.3 LineCode=2_CLP_1PH_12KV_1 Length=0.001125 units=km
New Line.ND44975963$ND135528221 phases=1 Bus1=44975963.3 Bus2=135528221.3 LineCode=2_CLP_1PH_12KV_1 Length=0.449878 units=km
New Line.PMH2958-1$ND135528382 phases=3 Bus1=44902552.1.2.3 Bus2=135528382.1.2.3 LineCode=1/0_CLP_3PH_12KV_3 Length=0.100473 units=km
New Line.PMH2958-4$ND135528402 phases=3 Bus1=44902535.1.2.3 Bus2=135528402.1.2.3 LineCode=2_CLP_3PH_12KV_3 Length=0.100473 units=km
New Line.P5433054-2$P5433055-2 phases=1 Bus1=44856897.2 Bus2=44856969.2 LineCode=2_CLP_1PH_12KV_1 Length=0.104897 units=km
New Line.P5390716-1$227131946 phases=1 Bus1=227131949.3 Bus2=44857298.3 LineCode=2_CLP_1PH_12KV_1 Length=0.002103 units=km
New Line.P5391236-1$ND44975963 phases=1 Bus1=44975963.1 Bus2=44857538.1 LineCode=2_CLP_1PH_12KV_1 Length=0.179246 units=km
New Line.P5391397-2$ND100069762 phases=1 Bus1=100069762.3 Bus2=44858123.3 LineCode=1/0_CLP_1PH_12KV_1 Length=0.54467 units=km
New Line.ND100069762$P5391391-1 phases=1 Bus1=100069762.3 Bus2=44858402.3 LineCode=1/0_CLP_1PH_12KV_1 Length=0.223893 units=km
New Line.ND44975963$44902660 phases=1 Bus1=44975963.2 Bus2=44902662.2 LineCode=2_CLP_1PH_12KV_1 Length=0.149291 units=km
New Line.P5391226-1$ND44945218 phases=1 Bus1=44945218.2 Bus2=44928730.2 LineCode=2_CLP_1PH_12KV_1 Length=0.176066 units=km
New Line.RCS2368-3$ND44975488 phases=3 Bus1=70164238.1.2.3 Bus2=44975488.1.2.3 LineCode=1/0_CLP_3PH_12KV_3 Length=0.001776 units=km
New Line.ND44945218$ND44975529 phases=1 Bus1=44945218.3 Bus2=44975529.3 LineCode=2_CLP_1PH_12KV_1 Length=0.486731 units=km
New Line.ND96052937$ND44945218 phases=1 Bus1=44945218.1 Bus2=96052937.1 LineCode=1/0_CLP_1PH_12KV_1 Length=0.502733 units=km
New Line.ND135528402$ND135528169 phases=2 Bus1=135528402.2.3 Bus2=135528169.2.3 LineCode=2_CLP_2PH_12KV_2 Length=0.349788 units=km
New Line.ND182568628$ND44975488 phases=1 Bus1=44975488.1 Bus2=182568628.1 LineCode=1/0_CLP_1PH_12KV_1 Length=0.193446 units=km
New Line.P5475306-2$44903304 phases=1 Bus1=44903307.1 Bus2=44903329.1 LineCode=1/0_CLP_1PH_12KV_1 Length=0.001175 units=km
New Line.44944203$44903560 phases=1 Bus1=44944205.1 Bus2=44903562.1 LineCode=1/0_CLP_1PH_12KV_1 Length=0.183295 units=km
New Line.44903642$44903734 phases=1 Bus1=44903644.2 Bus2=44903736.2 LineCode=2_CLP_1PH_12KV_1 Length=0.116306 units=km
New Line.P5497726-1$44931733 phases=1 Bus1=44931736.1 Bus2=44931749.1 LineCode=2_CLP_1PH_12KV_1 Length=0.001178 units=km
New Line.P5432973-2$ND44945134 phases=1 Bus1=44928163.2 Bus2=44945134.2 LineCode=1/0_CLP_1PH_12KV_1 Length=0.00799 units=km
New Line.P5563952-1$89833218 phases=1 Bus1=89832935.3 Bus2=89833221.3 LineCode=2_CLP_1PH_12KV_1 Length=0.001405 units=km
New Line.P5563954-2$89833272 phases=1 Bus1=89833080.3 Bus2=89833275.3 LineCode=2_CLP_1PH_12KV_1 Length=0.001475 units=km
New Line.P5563945-2$90682381 phases=1 Bus1=90681932.2 Bus2=90682384.2 LineCode=2_CLP_1PH_12KV_1 Length=0.000928 units=km
New Line.101752721$P5587366-2 phases=1 Bus1=101752724.2 Bus2=101752522.2 LineCode=2_CLP_1PH_12KV_1 Length=0.001546 units=km
New Line.101752696$ND101960973 phases=1 Bus1=101752698.2 Bus2=101960973.2 LineCode=2_CLP_1PH_12KV_1 Length=0.076391 units=km
New Line.104798290$P5587378-1 phases=1 Bus1=104798293.3 Bus2=104797877.3 LineCode=2_CLP_1PH_12KV_1 Length=0.001994 units=km
New Line.ND135528382$P5476470-1 phases=3 Bus1=135528382.1.2.3 Bus2=44905757.1.2.3 LineCode=1/0_CLP_3PH_12KV_3 Length=0.209313 units=km
New Line.P5432894-2$ND96052937 phases=1 Bus1=96052937.1 Bus2=44928451.1 LineCode=1/0_CLP_1PH_12KV_1 Length=0.221503 units=km
New Line.ND44975488$P5384325-1 phases=1 Bus1=44975488.2 Bus2=44929234.2 LineCode=1/0_CLP_1PH_12KV_1 Length=0.580609 units=km
New Line.P5497722-2$44930661 phases=1 Bus1=44930664.1 Bus2=44930696.1 LineCode=2_CLP_1PH_12KV_1 Length=0.002947 units=km
New Line.ND44975529$ND44945284 phases=1 Bus1=44975529.3 Bus2=44945284.3 LineCode=2_CLP_1PH_12KV_1 Length=0.135689 units=km
New Line.ND135528402$79684105 phases=1 Bus1=135528402.1 Bus2=79684118.1 LineCode=2_CLP_1PH_12KV_1 Length=0.097969 units=km
New Line.P5638085-1$148687933 phases=1 Bus1=148687936.3 Bus2=148687659.3 LineCode=2_JCN_1PH_12KV_1 Length=0.000884 units=km
New Line.P5391395-2$P5391396-1 phases=1 Bus1=44858627.3 Bus2=44858690.3 LineCode=1/0_CLP_1PH_12KV_1 Length=0.10004 units=km
New Line.ND44945134$44906504 phases=1 Bus1=44945134.2 Bus2=44906506.2 LineCode=1/0_CLP_1PH_12KV_1 Length=0.173868 units=km
New Line.ND44945134$44928138 phases=1 Bus1=44945134.2 Bus2=44928141.2 LineCode=1/0_CLP_1PH_12KV_1 Length=0.00129 units=km
New Line.240245604$P5391275-1 phases=1 Bus1=240245606.1 Bus2=44928298.1 LineCode=1/0_CLP_1PH_12KV_1 Length=0.121395 units=km
New Line.90681887$P5562258-1 phases=1 Bus1=90681890.1 Bus2=90681213.1 LineCode=2_CLP_1PH_12KV_1 Length=0.001113 units=km
New Line.90681787$P5562261-2 phases=1 Bus1=90681790.1 Bus2=90681426.1 LineCode=2_CLP_1PH_12KV_1 Length=0.000919 units=km
New Line.P5563949-2$94551521 phases=1 Bus1=94551336.2 Bus2=94551524.2 LineCode=2_CLP_1PH_12KV_1 Length=0.00131 units=km
New Line.PME6302-2$101752671 phases=1 Bus1=100441362.2 Bus2=101752673.2 LineCode=2_CLP_1PH_12KV_1 Length=0.205068 units=km
New Line.PME5814-2$ND110202506 phases=1 Bus1=90681088.2 Bus2=110202506.2 LineCode=2_CLP_1PH_12KV_1 Length=0.166284 units=km
New Line.180102657$P5390386-2 phases=1 Bus1=44858819.3 Bus2=180102659.3 LineCode=1/0_CLP_1PH_12KV_1 Length=0.171269 units=km
New Line.ND182568628$182568640 phases=1 Bus1=182568628.1 Bus2=182568642.1 LineCode=1/0_CLP_1PH_12KV_1 Length=0.060066 units=km
New Line.P5391233-2$P5391232-1 phases=1 Bus1=44857826.2 Bus2=44857907.2 LineCode=2_CLP_1PH_12KV_1 Length=0.076554 units=km
New Line.P5475146-1$44902660 phases=1 Bus1=44902663.2 Bus2=44902686.2 LineCode=2_CLP_1PH_12KV_1 Length=0.000526 units=km
New Line.ND135528169$44903652 phases=1 Bus1=135528169.2 Bus2=44903654.2 LineCode=2_CLP_1PH_12KV_1 Length=0.07964 units=km
New Line.P5362821-1$P5390385-2 phases=1 Bus1=44858963.3 Bus2=44905685.3 LineCode=1/0_CLP_1PH_12KV_1 Length=0.095691 units=km
New Line.ND101960973$102115884 phases=1 Bus1=101960973.2 Bus2=102115886.2 LineCode=2_CLP_1PH_12KV_1 Length=0.135563 units=km
New Line.ND101960973$102115909 phases=1 Bus1=101960973.2 Bus2=102115911.2 LineCode=2_CLP_1PH_12KV_1 Length=0.058746 units=km
New Line.104798090$104798115 phases=1 Bus1=104798092.1 Bus2=104798117.1 LineCode=2_CLP_1PH_12KV_1 Length=0.155789 units=km
New Line.P5432829-1$190718057 phases=1 Bus1=44928226.2 Bus2=190718060.2 LineCode=2_CLP_1PH_12KV_1 Length=0.021306 units=km
New Line.44903560$P5475303-2 phases=1 Bus1=44903563.1 Bus2=44903585.1 LineCode=1/0_CLP_1PH_12KV_1 Length=0.000655 units=km
New Line.44903734$P5475466-2 phases=1 Bus1=44903737.2 Bus2=44903759.2 LineCode=2_CLP_1PH_12KV_1 Length=0.001247 units=km
New Line.89833272$89833299 phases=1 Bus1=89833274.3 Bus2=89833301.3 LineCode=2_CLP_1PH_12KV_1 Length=0.107146 units=km
New Line.89833218$89833326 phases=1 Bus1=89833220.3 Bus2=89833328.3 LineCode=2_CLP_1PH_12KV_1 Length=0.062118 units=km
New Line.P5432896-2$ND44945284 phases=1 Bus1=44945284.3 Bus2=44928883.3 LineCode=2_CLP_1PH_12KV_1 Length=0.08891 units=km
New Line.P5432893-1$ND44945284 phases=1 Bus1=44945284.3 Bus2=44928946.3 LineCode=2_CLP_1PH_12KV_1 Length=0.077329 units=km
New Line.ND44975356$ND182568628 phases=1 Bus1=182568628.1 Bus2=44975356.1 LineCode=1/0_CLP_1PH_12KV_1 Length=0.390159 units=km
New Line.PME6302-3$ND104797401 phases=1 Bus1=100441371.1 Bus2=104797401.1 LineCode=2_CLP_1PH_12KV_1 Length=0.005103 units=km
New Line.PME5814-1$ND110202561 phases=1 Bus1=90681106.3 Bus2=110202561.3 LineCode=2_CLP_1PH_12KV_1 Length=0.325334 units=km
New Line.PME6302-1$148687808 phases=1 Bus1=100441380.3 Bus2=148687810.3 LineCode=2_CLP_1PH_12KV_1 Length=0.493337 units=km
New Line.227131973$P5390716-2 phases=1 Bus1=44857307.3 Bus2=227131976.3 LineCode=2_CLP_1PH_12KV_1 Length=0.124012 units=km
New Line.ND44975356$240245575 phases=1 Bus1=44975356.1 Bus2=240245577.1 LineCode=1/0_CLP_1PH_12KV_1 Length=0.022795 units=km
New Line.90682381$90682331 phases=1 Bus1=90682383.2 Bus2=90682333.2 LineCode=2_CLP_1PH_12KV_1 Length=0.142778 units=km
New Line.135528300$P5475306-1 phases=1 Bus1=44903320.1 Bus2=135528303.1 LineCode=1/0_CLP_1PH_12KV_1 Length=0.010437 units=km
New Line.P5475147-2$44902762 phases=1 Bus1=44902787.2 Bus2=44902765.2 LineCode=2_CLP_1PH_12KV_1 Length=0.001623 units=km
New Line.44928138$44906422 phases=1 Bus1=44928140.2 Bus2=44906424.2 LineCode=1/0_CLP_1PH_12KV_1 Length=0.234727 units=km
New Line.44906504$P5464548-2 phases=1 Bus1=44906507.2 Bus2=44906529.2 LineCode=1/0_CLP_1PH_12KV_1 Length=0.014281 units=km
New Line.P5497726-2$44931723 phases=1 Bus1=44931758.1 Bus2=44931726.1 LineCode=2_CLP_1PH_12KV_1 Length=0.00036 units=km
New Line.79684105$P5475302-2 phases=1 Bus1=79684108.1 Bus2=44902971.1 LineCode=UNK_UNK_1PH_12KV_1 Length=1e-05 units=km
New Line.79684127$P5475308-1 phases=1 Bus1=79684130.1 Bus2=44903494.1 LineCode=UNK_UNK_1PH_12KV_1 Length=1e-05 units=km
New Line.94551521$94551546 phases=1 Bus1=94551523.2 Bus2=94551548.2 LineCode=2_CLP_1PH_12KV_1 Length=0.145506 units=km
New Line.P5587366-1$101752746 phases=1 Bus1=101752513.2 Bus2=101752749.2 LineCode=2_CLP_1PH_12KV_1 Length=0.001336 units=km
New Line.102115884$P5587370-2 phases=1 Bus1=102115887.2 Bus2=101939506.2 LineCode=2_CLP_1PH_12KV_1 Length=0.001881 units=km
New Line.102115909$P5587369-1 phases=1 Bus1=102115912.2 Bus2=101960888.2 LineCode=2_CLP_1PH_12KV_1 Length=0.001121 units=km
New Line.104798115$P5587374-2 phases=1 Bus1=104798118.1 Bus2=104797522.1 LineCode=2_CLP_1PH_12KV_1 Length=0.00129 units=km
New Line.P5587378-2$ND104798026 phases=1 Bus1=104797886.3 Bus2=104798026.3 LineCode=2_CLP_1PH_12KV_1 Length=0.001824 units=km
New Line.190718057$ND44975780 phases=1 Bus1=190718059.2 Bus2=44975780.2 LineCode=2_CLP_1PH_12KV_1 Length=0.014675 units=km
New Line.89833326$P5563953-2 phases=1 Bus1=89833329.3 Bus2=89832876.3 LineCode=2_CLP_1PH_12KV_1 Length=0.001867 units=km
New Line.89833299$P5563955-1 phases=1 Bus1=89833302.3 Bus2=89833003.3 LineCode=2_CLP_1PH_12KV_1 Length=0.002039 units=km
New Line.P5562258-2$ND90681613 phases=1 Bus1=90681222.1 Bus2=90681613.1 LineCode=2_CLP_1PH_12KV_1 Length=0.002623 units=km
New Line.P5562261-1$90681762 phases=1 Bus1=90681417.1 Bus2=90681765.1 LineCode=2_CLP_1PH_12KV_1 Length=0.000748 units=km
New Line.90682331$P5563946-1 phases=1 Bus1=90682334.2 Bus2=90682099.2 LineCode=2_CLP_1PH_12KV_1 Length=0.001018 units=km
New Line.ND104798026$104798240 phases=1 Bus1=104798026.3 Bus2=104798242.3 LineCode=2_CLP_1PH_12KV_1 Length=0.118709 units=km
New Line.ND104798026$104798315 phases=1 Bus1=104798026.3 Bus2=104798318.3 LineCode=2_CLP_1PH_12KV_1 Length=0.001567 units=km
New Line.135528300$135528288 phases=1 Bus1=135528302.1 Bus2=135528290.1 LineCode=1/0_CLP_1PH_12KV_1 Length=0.131101 units=km
New Line.44902762$44902854 phases=1 Bus1=44902764.2 Bus2=44902856.2 LineCode=2_CLP_1PH_12KV_1 Length=0.14367 units=km
New Line.P5464549-2$44906422 phases=1 Bus1=44906425.2 Bus2=44906447.2 LineCode=1/0_CLP_1PH_12KV_1 Length=0.007995 units=km
New Line.P5391230-2$ND44975780 phases=1 Bus1=44975780.2 Bus2=44928523.2 LineCode=2_CLP_1PH_12KV_1 Length=0.090827 units=km
New Line.P5433053-1$P5433054-1 phases=1 Bus1=44856960.2 Bus2=44857032.2 LineCode=2_CLP_1PH_12KV_1 Length=0.214917 units=km
New Line.P5391237-2$P5391236-2 phases=1 Bus1=44857547.1 Bus2=44857619.1 LineCode=2_CLP_1PH_12KV_1 Length=0.108704 units=km
New Line.P5391398-2$P5391397-1 phases=1 Bus1=44858114.3 Bus2=44858195.3 LineCode=1/0_CLP_1PH_12KV_1 Length=0.13541 units=km
New Line.P5391226-2$P5391227-2 phases=1 Bus1=44928739.2 Bus2=44928667.2 LineCode=2_CLP_1PH_12KV_1 Length=0.191027 units=km
New Line.ND44975356$ND44945075 phases=1 Bus1=44975356.1 Bus2=44945075.1 LineCode=1/0_CLP_1PH_12KV_1 Length=0.007213 units=km
New Line.P5391391-2$ND44976928 phases=1 Bus1=44858411.3 Bus2=44976928.3 LineCode=1/0_CLP_1PH_12KV_1 Length=0.061004 units=km
New Line.PME5814-3$90681629 phases=1 Bus1=90681097.1 Bus2=90681631.1 LineCode=2_CLP_1PH_12KV_1 Length=0.166284 units=km
New Line.ND110202506$90682356 phases=1 Bus1=110202506.2 Bus2=90682358.2 LineCode=2_CLP_1PH_12KV_1 Length=0.090829 units=km
New Line.ND110202506$94551469 phases=1 Bus1=110202506.2 Bus2=94551472.2 LineCode=2_CLP_1PH_12KV_1 Length=0.015563 units=km
New Line.ND104797401$100441787 phases=1 Bus1=104797401.1 Bus2=100441789.1 LineCode=2_CLP_1PH_12KV_1 Length=0.082746 units=km
New Line.101752671$P5587365-1 phases=1 Bus1=101752674.2 Bus2=101752581.2 LineCode=2_CLP_1PH_12KV_1 Length=0.001757 units=km
New Line.ND104797401$104798063 phases=1 Bus1=104797401.1 Bus2=104798065.1 LineCode=2_CLP_1PH_12KV_1 Length=0.113901 units=km
New Line.ND44976928$P5391393-2 phases=1 Bus1=44976928.3 Bus2=44858483.3 LineCode=1/0_CLP_1PH_12KV_1 Length=0.102965 units=km
New Line.P5391394-1$ND44976928 phases=1 Bus1=44976928.3 Bus2=44858546.3 LineCode=1/0_CLP_1PH_12KV_1 Length=0.124861 units=km
New Line.P5390387-2$180102657 phases=1 Bus1=180102660.3 Bus2=44858891.3 LineCode=1/0_CLP_1PH_12KV_1 Length=0.003078 units=km
New Line.P5475465-2$44903652 phases=1 Bus1=44903655.2 Bus2=44903677.2 LineCode=2_CLP_1PH_12KV_1 Length=0.00063 units=km
New Line.P5432894-1$P5432892-1 phases=1 Bus1=44928442.1 Bus2=44906346.1 LineCode=1/0_CLP_1PH_12KV_1 Length=0.149264 units=km
New Line.P5384325-2$44928128 phases=1 Bus1=44929243.2 Bus2=44928130.2 LineCode=1/0_CLP_1PH_12KV_1 Length=0.155513 units=km
New Line.P5391274-2$ND44945075 phases=1 Bus1=44945075.1 Bus2=44928379.1 LineCode=1/0_CLP_1PH_12KV_1 Length=0.162606 units=km
New Line.P5384323-2$ND44945075 phases=1 Bus1=44945075.1 Bus2=44929099.1 LineCode=1/0_CLP_1PH_12KV_1 Length=0.158288 units=km
New Line.182568640$P5384321-2 phases=1 Bus1=182568643.1 Bus2=44929171.1 LineCode=1/0_CLP_1PH_12KV_1 Length=0.002885 units=km
New Line.P5391229-2$ND44975780 phases=1 Bus1=44975780.2 Bus2=44928595.2 LineCode=2_CLP_1PH_12KV_1 Length=0.136316 units=km
New Line.44931723$44931815 phases=1 Bus1=44931725.1 Bus2=44931817.1 LineCode=2_CLP_1PH_12KV_1 Length=0.097386 units=km
New Line.ND90681613$90681812 phases=1 Bus1=90681613.1 Bus2=90681814.1 LineCode=2_CLP_1PH_12KV_1 Length=0.092227 units=km
New Line.ND90681613$90681862 phases=1 Bus1=90681613.1 Bus2=90681865.1 LineCode=2_CLP_1PH_12KV_1 Length=0.000968 units=km
New Line.94551546$P5563950-1 phases=1 Bus1=94551549.2 Bus2=94551395.2 LineCode=2_CLP_1PH_12KV_1 Length=0.001205 units=km
New Line.101752746$101752771 phases=1 Bus1=101752748.2 Bus2=101752773.2 LineCode=2_CLP_1PH_12KV_1 Length=0.102863 units=km
New Line.90681762$90681737 phases=1 Bus1=90681764.1 Bus2=90681739.1 LineCode=2_CLP_1PH_12KV_1 Length=0.096895 units=km
New Line.P5497722-1$44944387 phases=1 Bus1=44930687.1 Bus2=44944390.1 LineCode=2_CLP_1PH_12KV_1 Length=0.005395 units=km
New Line.ND110202561$89833191 phases=1 Bus1=110202561.3 Bus2=89833193.3 LineCode=2_CLP_1PH_12KV_1 Length=0.085395 units=km
New Line.ND110202561$89833245 phases=1 Bus1=110202561.3 Bus2=89833247.3 LineCode=2_CLP_1PH_12KV_1 Length=0.103717 units=km
New Line.ND148687730$148687808 phases=1 Bus1=148687811.3 Bus2=148687730.3 LineCode=2_CLP_1PH_12KV_1 Length=0.016823 units=km
New Line.P5390717-1$227131973 phases=1 Bus1=227131975.3 Bus2=44857370.3 LineCode=2_CLP_1PH_12KV_1 Length=0.116168 units=km
New Line.P5391234-2$P5391233-1 phases=1 Bus1=44857898.2 Bus2=44857979.2 LineCode=2_CLP_1PH_12KV_1 Length=0.21334 units=km
New Line.P5587370-1$101961027 phases=1 Bus1=101939497.2 Bus2=102115862.2 LineCode=2_CLP_1PH_12KV_1 Length=0.001438 units=km
New Line.104798240$P5587380-2 phases=1 Bus1=104798243.3 Bus2=104797808.3 LineCode=2_CLP_1PH_12KV_1 Length=0.001335 units=km
New Line.P5587374-1$104798140 phases=1 Bus1=104797513.1 Bus2=104798143.1 LineCode=2_CLP_1PH_12KV_1 Length=0.001691 units=km
New Line.104798315$104798265 phases=1 Bus1=104798317.3 Bus2=104798267.3 LineCode=2_CLP_1PH_12KV_1 Length=0.067855 units=km
New Line.P5475148-1$44902854 phases=1 Bus1=44902857.2 Bus2=44902870.2 LineCode=2_CLP_1PH_12KV_1 Length=0.001046 units=km
New Line.135528288$P5475307-1 phases=1 Bus1=135528291.1 Bus2=44903412.1 LineCode=1/0_CLP_1PH_12KV_1 Length=0.002341 units=km