! OpenDSS script generated from multiconductor network
Clear

New Circuit.mc_network basekv=12.0 pu=1.000000 angle=0.00 frequency=60.0 phases=3 Mvasc3=143993 Mvasc1=47997.6
~ bus1=-8888882179550.1.2.3

! Line codes
New LineCode.1/0_JCN_1PH_12KV_1 nphases=1 units=km Rmatrix=[ 0.00693 ] Xmatrix=[ 0.002118 ] Cmatrix=[ 0 ]
New LineCode.2_CLP_1PH_12KV_1 nphases=1 units=km Rmatrix=[ 0.092803 ] Xmatrix=[ 0.019561 ] Cmatrix=[ 0 ]
New LineCode.2_AL_2PH_12KV_2 nphases=2 units=km Rmatrix=[ 0.086472 | 0 0.086472 ] Xmatrix=[ 0.018227 | 0 0.018227 ] Cmatrix=[ 0 | 0 0 ]
New LineCode.2_CLP_2PH_12KV_2 nphases=2 units=km Rmatrix=[ 0.181838 | 0 0.181838 ] Xmatrix=[ 0.038328 | 0 0.038328 ] Cmatrix=[ 0 | 0 0 ]
New LineCode.1/0_JCN_3PH_12KV_3 nphases=3 units=km Rmatrix=[ 0.004403 | 0 0.004403 | 0 0 0.004403 ] Xmatrix=[ 0.001346 | 0 0.001346 | 0 0 0.001346 ] Cmatrix=[ 0 | 0 0 | 0 0 0 ]
New LineCode.1/0_JCN_2PH_12KV_2 nphases=2 units=km Rmatrix=[ 0.002218 | 0 0.002218 ] Xmatrix=[ 0.000678 | 0 0.000678 ] Cmatrix=[ 0 | 0 0 ]
New LineCode.2_AL_1PH_12KV_1 nphases=1 units=km Rmatrix=[ 0.01531 ] Xmatrix=[ 0.003227 ] Cmatrix=[ 0 ]
New LineCode.1/0_CLP_3PH_12KV_3 nphases=3 units=km Rmatrix=[ 0.091207 | 0 0.091207 | 0 0 0.091207 ] Xmatrix=[ 0.027877 | 0 0.027877 | 0 0 0.027877 ] Cmatrix=[ 0 | 0 0 | 0 0 0 ]
New LineCode.350_CLP_3PH_12KV_3 nphases=3 units=km Rmatrix=[ 0.000415 | 0 0.000415 | 0 0 0.000415 ] Xmatrix=[ 0.000315 | 0 0.000315 | 0 0 0.000315 ] Cmatrix=[ 0 | 0 0 | 0 0 0 ]
New LineCode.2_CLP_3PH_12KV_3 nphases=3 units=km Rmatrix=[ 0.001482 | 0 0.001482 | 0 0 0.001482 ] Xmatrix=[ 0.000312 | 0 0.000312 | 0 0 0.000312 ] Cmatrix=[ 0 | 0 0 | 0 0 0 ]
New LineCode.1/0_CLP_2PH_12KV_2 nphases=2 units=km Rmatrix=[ 0.140408 | 0 0.140408 ] Xmatrix=[ 0.042915 | 0 0.042915 ] Cmatrix=[ 0 | 0 0 ]
New LineCode.1/0_CLP_1PH_12KV_1 nphases=1 units=km Rmatrix=[ 0.050204 ] Xmatrix=[ 0.015345 ] Cmatrix=[ 0 ]
New LineCode.2_JCN_1PH_12KV_1 nphases=1 units=km Rmatrix=[ 0.002177 ] Xmatrix=[ 0.000459 ] Cmatrix=[ 0 ]
New LineCode.1/0_CU_1PH_12KV_1 nphases=1 units=km Rmatrix=[ 1e-05 ] Xmatrix=[ 1e-05 ] Cmatrix=[ 0 ]
New LineCode.1/0_CU_2PH_12KV_2 nphases=2 units=km Rmatrix=[ 1e-05 | 0 1e-05 ] Xmatrix=[ 1e-05 | 0 1e-05 ] Cmatrix=[ 0 | 0 0 ]
New LineCode.1/0_ATW_3PH_12KV_3 nphases=3 units=km Rmatrix=[ 1e-05 | 0 1e-05 | 0 0 1e-05 ] Xmatrix=[ 1e-05 | 0 1e-05 | 0 0 1e-05 ] Cmatrix=[ 0 | 0 0 | 0 0 0 ]
New LineCode.350_CLP_1PH_12KV_1 nphases=1 units=km Rmatrix=[ 0.010772 ] Xmatrix=[ 0.008185 ] Cmatrix=[ 0 ]
New LineCode.2_JCN_2PH_12KV_2 nphases=2 units=km Rmatrix=[ 0.232285 | 0 0.232285 ] Xmatrix=[ 0.048961 | 0 0.048961 ] Cmatrix=[ 0 | 0 0 ]
New LineCode.2_CIC_1PH_12KV_1 nphases=1 units=km Rmatrix=[ 0.075458 ] Xmatrix=[ 0.015905 ] Cmatrix=[ 0 ]
New LineCode.__1PH_12KV_1 nphases=1 units=km Rmatrix=[ 1e-05 ] Xmatrix=[ 1e-05 ] Cmatrix=[ 0 ]
New LineCode.336_ATW_3PH_336_ATW_N_12KV_4 nphases=4 units=km Rmatrix=[ 1e-05 | 0 1e-05 | 0 0 1e-05 | 0 0 0 1e-05 ] Xmatrix=[ 1e-05 | 0 1e-05 | 0 0 1e-05 | 0 0 0 1e-05 ] Cmatrix=[ 0 | 0 0 | 0 0 0 | 0 0 0 0 ]
New LineCode.1/0_ATW_2PH_1/0_ATW_N_12KV_3_N nphases=3 units=km Rmatrix=[ 1e-05 | 0 1e-05 | 0 0 1e-05 ] Xmatrix=[ 1e-05 | 0 1e-05 | 0 0 1e-05 ] Cmatrix=[ 0 | 0 0 | 0 0 0 ]
New LineCode.1/0_ATW_2PH_12KV_2 nphases=2 units=km Rmatrix=[ 1e-05 | 0 1e-05 ] Xmatrix=[ 1e-05 | 0 1e-05 ] Cmatrix=[ 0 | 0 0 ]
New LineCode.1/0_ATW_3PH_1/0_ATW_N_12KV_4 nphases=4 units=km Rmatrix=[ 1e-05 | 0 1e-05 | 0 0 1e-05 | 0 0 0 1e-05 ] Xmatrix=[ 1e-05 | 0 1e-05 | 0 0 1e-05 | 0 0 0 1e-05 ] Cmatrix=[ 0 | 0 0 | 0 0 0 | 0 0 0 0 ]
New LineCode.1/0_ACSR_3PH_12KV_3 nphases=3 units=km Rmatrix=[ 0.002176 | 0 0.002176 | 0 0 0.002176 ] Xmatrix=[ 0.001733 | 0 0.001733 | 0 0 0.001733 ] Cmatrix=[ 0 | 0 0 | 0 0 0 ]
New LineCode.4_ACSR_2PH_12KV_2 nphases=2 units=km Rmatrix=[ 0.039616 | 0 0.039616 ] Xmatrix=[ 0.014537 | 0 0.014537 ] Cmatrix=[ 0 | 0 0 ]
New LineCode.1/0_CU_3PH_12KV_3 nphases=3 units=km Rmatrix=[ 0.001429 | 0 0.001429 | 0 0 0.001429 ] Xmatrix=[ 0.00178 | 0 0.00178 | 0 0 0.00178 ] Cmatrix=[ 0 | 0 0 | 0 0 0 ]
New LineCode.1/0_ACSR_2PH_1/0_ACSR_N_12KV_3_N nphases=3 units=km Rmatrix=[ 0.001229 | 0 0.001229 | 0 0 0.001229 ] Xmatrix=[ 0.000888 | 0 0.000888 | 0 0 0.000888 ] Cmatrix=[ 0 | 0 0 | 0 0 0 ]
New LineCode.336_ATW_3PH_12KV_3 nphases=3 units=km Rmatrix=[ 1e-05 | 0 1e-05 | 0 0 1e-05 ] Xmatrix=[ 1e-05 | 0 1e-05 | 0 0 1e-05 ] Cmatrix=[ 0 | 0 0 | 0 0 0 ]
New LineCode.954_ACSR_3PH_954_ACSR_N_12KV_4 nphases=4 units=km Rmatrix=[ 1e-05 | 0 1e-05 | 0 0 1e-05 | 0 0 0 1e-05 ] Xmatrix=[ 1e-05 | 0 1e-05 | 0 0 1e-05 | 0 0 0 1e-05 ] Cmatrix=[ 0 | 0 0 | 0 0 0 | 0 0 0 0 ]
New LineCode.336_ATW_2PH_336_ATW_N_12KV_3_N nphases=3 units=km Rmatrix=[ 1e-05 | 0 1e-05 | 0 0 1e-05 ] Xmatrix=[ 1e-05 | 0 1e-05 | 0 0 1e-05 ] Cmatrix=[ 0 | 0 0 | 0 0 0 ]
New LineCode.1/0_ATW_1PH_12KV_2 nphases=2 units=km Rmatrix=[ 1e-05 | 0 1e-05 ] Xmatrix=[ 1e-05 | 0 1e-05 ] Cmatrix=[ 0 | 0 0 ]
New LineCode.336_ATW_2PH_12KV_2 nphases=2 units=km Rmatrix=[ 1e-05 | 0 1e-05 ] Xmatrix=[ 1e-05 | 0 1e-05 ] Cmatrix=[ 0 | 0 0 ]
New LineCode.1/0_ACSR_3PH_1/0_ACSR_N_12KV_4 nphases=4 units=km Rmatrix=[ 0.002268 | 0 0.002268 | 0 0 0.002268 | 0 0 0 0.002268 ] Xmatrix=[ 0.001639 | 0 0.001639 | 0 0 0.001639 | 0 0 0 0.001639 ] Cmatrix=[ 0 | 0 0 | 0 0 0 | 0 0 0 0 ]
New LineCode.1/0_AL_1PH_12KV_1 nphases=1 units=km Rmatrix=[ 0.071503 ] Xmatrix=[ 0.021855 ] Cmatrix=[ 0 ]
New LineCode.750_CLP_1PH_12KV_1 nphases=1 units=km Rmatrix=[ 0.000136 ] Xmatrix=[ 0.000167 ] Cmatrix=[ 0 ]
New LineCode.1/0_AL_2PH_12KV_2 nphases=2 units=km Rmatrix=[ 0.206534 | 0 0.206534 ] Xmatrix=[ 0.063126 | 0 0.063126 ] Cmatrix=[ 0 | 0 0 ]
New LineCode.336_ACSR_3PH_336_ACSR_N_12KV_4 nphases=4 units=km Rmatrix=[ 0.003171 | 0 0.003171 | 0 0 0.003171 | 0 0 0 0.003171 ] Xmatrix=[ 0.006324 | 0 0.006324 | 0 0 0.006324 | 0 0 0 0.006324 ] Cmatrix=[ 0 | 0 0 | 0 0 0 | 0 0 0 0 ]
New LineCode.1/0_ACSR_2PH_12KV_2 nphases=2 units=km Rmatrix=[ 0.003022 | 0 0.003022 ] Xmatrix=[ 0.002406 | 0 0.002406 ] Cmatrix=[ 0 | 0 0 ]
New LineCode.4_ACSR_2PH_4_ACSR_N_12KV_3_N nphases=3 units=km Rmatrix=[ 0.003926 | 0 0.003926 | 0 0 0.003926 ] Xmatrix=[ 0.001321 | 0 0.001321 | 0 0 0.001321 ] Cmatrix=[ 0 | 0 0 | 0 0 0 ]
New LineCode.1/0_ACSR_1PH_1/0_ACSR_N_12KV_3_N nphases=3 units=km Rmatrix=[ 0.002666 | 0 0.002666 | 0 0 0.002666 ] Xmatrix=[ 0.001927 | 0 0.001927 | 0 0 0.001927 ] Cmatrix=[ 0 | 0 0 | 0 0 0 ]
New LineCode.2_ACSR_2PH_2_ACSR_N_12KV_3_N nphases=3 units=km Rmatrix=[ 0.005043 | 0 0.005043 | 0 0 0.005043 ] Xmatrix=[ 0.002443 | 0 0.002443 | 0 0 0.002443 ] Cmatrix=[ 0 | 0 0 | 0 0 0 ]
New LineCode.1000_JCN_3PH_12KV_3 nphases=3 units=km Rmatrix=[ 0.036721 | 0 0.036721 | 0 0 0.036721 ] Xmatrix=[ 0.055585 | 0 0.055585 | 0 0 0.055585 ] Cmatrix=[ 0 | 0 0 | 0 0 0 ]
New LineCode.1/0_ATW_1PH_1/0_ATW_N_12KV_3_N nphases=3 units=km Rmatrix=[ 1e-05 | 0 1e-05 | 0 0 1e-05 ] Xmatrix=[ 1e-05 | 0 1e-05 | 0 0 1e-05 ] Cmatrix=[ 0 | 0 0 | 0 0 0 ]
New LineCode.4_ACSR_1PH_4_ACSR_N_12KV_3_N nphases=3 units=km Rmatrix=[ 0.042009 | 0 0.042009 | 0 0 0.042009 ] Xmatrix=[ 0.01413 | 0 0.01413 | 0 0 0.01413 ] Cmatrix=[ 0 | 0 0 | 0 0 0 ]
New LineCode.1/0_ATW_3PH_12KV_2 nphases=2 units=km Rmatrix=[ 1e-05 | 0 1e-05 ] Xmatrix=[ 1e-05 | 0 1e-05 ] Cmatrix=[ 0 | 0 0 ]
New LineCode.2_ACSR_3PH_2_ACSR_N_12KV_4 nphases=4 units=km Rmatrix=[ 0.003532 | 0 0.003532 | 0 0 0.003532 | 0 0 0 0.003532 ] Xmatrix=[ 0.001711 | 0 0.001711 | 0 0 0.001711 | 0 0 0 0.001711 ] Cmatrix=[ 0 | 0 0 | 0 0 0 | 0 0 0 0 ]
New LineCode.2_JCN_3PH_12KV_3 nphases=3 units=km Rmatrix=[ 0.201892 | 0 0.201892 | 0 0 0.201892 ] Xmatrix=[ 0.042555 | 0 0.042555 | 0 0 0.042555 ] Cmatrix=[ 0 | 0 0 | 0 0 0 ]
New LineCode.1/0_AL_3PH_12KV_3 nphases=3 units=km Rmatrix=[ 0.00374 | 0 0.00374 | 0 0 0.00374 ] Xmatrix=[ 0.001143 | 0 0.001143 | 0 0 0.001143 ] Cmatrix=[ 0 | 0 0 | 0 0 0 ]
New LineCode.350_JCN_3PH_12KV_3 nphases=3 units=km Rmatrix=[ 0.039823 | 0 0.039823 | 0 0 0.039823 ] Xmatrix=[ 0.030257 | 0 0.030257 | 0 0 0.030257 ] Cmatrix=[ 0 | 0 0 | 0 0 0 ]
New LineCode.350_AL_1PH_12KV_1 nphases=1 units=km Rmatrix=[ 0.00977 ] Xmatrix=[ 0.007423 ] Cmatrix=[ 0 ]
New LineCode.750_JCN_3PH_12KV_3 nphases=3 units=km Rmatrix=[ 0.050703 | 0 0.050703 | 0 0 0.050703 ] Xmatrix=[ 0.06227 | 0 0.06227 | 0 0 0.06227 ] Cmatrix=[ 0 | 0 0 | 0 0 0 ]
New LineCode.1/0_ACSR_1PH_12KV_2 nphases=2 units=km Rmatrix=[ 0.003675 | 0 0.003675 ] Xmatrix=[ 0.002926 | 0 0.002926 ] Cmatrix=[ 0 | 0 0 ]
New LineCode.1/0_CU_1PH_1/0_CU_N_12KV_3_N nphases=3 units=km Rmatrix=[ 0.001851 | 0 0.001851 | 0 0 0.001851 ] Xmatrix=[ 0.002072 | 0 0.002072 | 0 0 0.002072 ] Cmatrix=[ 0 | 0 0 | 0 0 0 ]
New LineCode.2_ACSR_1PH_2_ACSR_N_12KV_3_N nphases=3 units=km Rmatrix=[ 0.001385 | 0 0.001385 | 0 0 0.001385 ] Xmatrix=[ 0.000671 | 0 0.000671 | 0 0 0.000671 ] Cmatrix=[ 0 | 0 0 | 0 0 0 ]
New LineCode.2_JCN_C_3PH_12KV_3 nphases=3 units=km Rmatrix=[ 1e-05 | 0 1e-05 | 0 0 1e-05 ] Xmatrix=[ 1e-05 | 0 1e-05 | 0 0 1e-05 ] Cmatrix=[ 0 | 0 0 | 0 0 0 ]
New LineCode.2_JCN_C_1PH_12KV_1 nphases=1 units=km Rmatrix=[ 1e-05 ] Xmatrix=[ 1e-05 ] Cmatrix=[ 0 ]

! Lines
New Line.171072682$171072653 phases=1 Bus1=171072655.2 Bus2=171072684.2 LineCode=1/0_JCN_1PH_12KV_1 Length=0.025658 units=km
New Line.171072865$171072894 phases=1 Bus1=171072867.2 Bus2=171072896.2 LineCode=1/0_JCN_1PH_12KV_1 Length=0.020895 units=km
New Line.ND175182395$175182414 phases=1 Bus1=175182395.3 Bus2=175182417.3 LineCode=1/0_JCN_1PH_12KV_1 Length=0.011032 units=km
New Line.ND175182543$ND175182395 phases=1 Bus1=175182395.3 Bus2=175182543.3 LineCode=1/0_JCN_1PH_12KV_1 Length=0.011004 units=km
New Line.179025652$P5655577-1 phases=1 Bus1=179025655.2 Bus2=179025482.2 LineCode=1/0_JCN_1PH_12KV_1 Length=0.00148 units=km
New Line.179025679$P5655576-1 phases=1 Bus1=179025682.2 Bus2=179025555.2 LineCode=1/0_JCN_1PH_12KV_1 Length=0.002948 units=km
New Line.179026175$P5704785-1 phases=1 Bus1=179026178.2 Bus2=189147269.2 LineCode=1/0_JCN_1PH_12KV_1 Length=0.002706 units=km
New Line.189147450$P5704786-1 phases=1 Bus1=189147453.2 Bus2=189147373.2 LineCode=1/0_JCN_1PH_12KV_1 Length=0.002351 units=km
New Line.203919940$ND203919809 phases=1 Bus1=203919809.2 Bus2=203919943.2 LineCode=1/0_JCN_1PH_12KV_1 Length=0.011746 units=km
New Line.203919969$ND203919809 phases=1 Bus1=203919809.2 Bus2=203919972.2 LineCode=1/0_JCN_1PH_12KV_1 Length=0.179058 units=km
New Line.P5360989-2$203919622 phases=1 Bus1=203919624.1 Bus2=46943746.1 LineCode=1/0_JCN_1PH_12KV_1 Length=0.028431 units=km
New Line.85438083$J802A-3P phases=1 Bus1=46966673.3 Bus2=85438086.3 LineCode=2_CLP_1PH_12KV_1 Length=0.001268 units=km
New Line.203919676$91032954 phases=1 Bus1=203919678.1 Bus2=91032956.1 LineCode=1/0_JCN_1PH_12KV_1 Length=0.020144 units=km
New Line.P5343624-1$ND143936834 phases=2 Bus1=143936834.1.2 Bus2=46926347.1.2 LineCode=2_AL_2PH_12KV_2 Length=0.049771 units=km
New Line.ND47000634$BS0095-1 phases=1 Bus1=47000634.1 Bus2=46927542.1 LineCode=2_CLP_1PH_12KV_1 Length=0.094575 units=km
New Line.46999055$46999045 phases=2 Bus1=46999058.2.3 Bus2=46999048.2.3 LineCode=2_CLP_2PH_12KV_2 Length=0.027831 units=km
New Line.91707707$P5541705-1 phases=1 Bus1=91707710.2 Bus2=91707624.2 LineCode=2_CLP_1PH_12KV_1 Length=0.002131 units=km
New Line.94592397$P5549863-2 phases=1 Bus1=94592400.1 Bus2=94592331.1 LineCode=2_CLP_1PH_12KV_1 Length=0.002005 units=km
New Line.194776637$PME7826-1 phases=1 Bus1=194776640.1 Bus2=194776025.1 LineCode=2_CLP_1PH_12KV_1 Length=0.002751 units=km
New Line.ND203919232$ND203919134 phases=3 Bus1=203919134.1.2.3 Bus2=203919232.1.2.3 LineCode=1/0_JCN_3PH_12KV_3 Length=0.005513 units=km
New Line.225439825$J014-1P phases=2 Bus1=225439828.1.2 Bus2=225439444.1.2 LineCode=1/0_JCN_2PH_12KV_2 Length=0.002189 units=km
New Line.P5620139-1$P5431974-2 phases=1 Bus1=46900107.2 Bus2=46900044.2 LineCode=2_AL_1PH_12KV_1 Length=0.148849 units=km
New Line.ND169647581$PMS1847-1 phases=1 Bus1=169647581.1 Bus2=46927191.1 LineCode=2_CLP_1PH_12KV_1 Length=0.054394 units=km
New Line.ND169647581$4111909E phases=3 Bus1=169647581.1.2.3 Bus2=46928976.1.2.3 LineCode=1/0_CLP_3PH_12KV_3 Length=0.003694 units=km
New Line.P5328322-2$46944916 phases=3 Bus1=46944951.1.2.3 Bus2=46944919.1.2.3 LineCode=350_CLP_3PH_12KV_3 Length=0.006737 units=km
New Line.69833659$69833801 phases=1 Bus1=69833803.3 Bus2=69833661.3 LineCode=2_CLP_1PH_12KV_1 Length=0.097678 units=km
New Line.J7610-1P$69833811 phases=3 Bus1=69833676.1.2.3 Bus2=69833814.1.2.3 LineCode=2_CLP_3PH_12KV_3 Length=0.001623 units=km
New Line.P5467214-1$ND95457729 phases=1 Bus1=46966221.1 Bus2=95457729.1 LineCode=2_CLP_1PH_12KV_1 Length=0.002053 units=km
New Line.194776609$PME7825-1 phases=1 Bus1=194776493.3 Bus2=194776612.3 LineCode=1/0_JCN_1PH_12KV_1 Length=0.00126 units=km
New Line.201095028$201095080 phases=1 Bus1=201095082.1 Bus2=201095030.1 LineCode=2_CLP_1PH_12KV_1 Length=0.031462 units=km
New Line.201095105$ND203919232 phases=1 Bus1=203919232.2 Bus2=201095108.2 LineCode=2_CLP_1PH_12KV_1 Length=0.015802 units=km
New Line.201095130$ND203919232 phases=3 Bus1=203919232.1.2.3 Bus2=201095133.1.2.3 LineCode=1/0_JCN_3PH_12KV_3 Length=0.007121 units=km
New Line.PME1992-3$244036955 phases=1 Bus1=244036675.1 Bus2=244036958.1 LineCode=1/0_JCN_1PH_12KV_1 Length=0.006562 units=km
New Line.PME1992-1$244036982 phases=1 Bus1=244036684.3 Bus2=244036985.3 LineCode=1/0_JCN_1PH_12KV_1 Length=0.002734 units=km
New Line.275359264$P5734328-1 phases=1 Bus1=275359267.2 Bus2=275359123.2 LineCode=1/0_JCN_1PH_12KV_1 Length=0.001258 units=km
New Line.46875875$P5466633-2 phases=2 Bus1=46875878.2.3 Bus2=46875900.2.3 LineCode=1/0_CLP_2PH_12KV_2 Length=0.005519 units=km
New Line.J261-1P$236986177 phases=1 Bus1=236985968.2 Bus2=236986180.2 LineCode=1/0_JCN_1PH_12KV_1 Length=0.015036 units=km
New Line.260619618$260619645 phases=2 Bus1=260619620.2.3 Bus2=260619647.2.3 LineCode=1/0_JCN_2PH_12KV_2 Length=0.035209 units=km
New Line.P5363300-1$ND47001520 phases=1 Bus1=47001520.2 Bus2=46899819.2 LineCode=2_AL_1PH_12KV_1 Length=0.160745 units=km
New Line.P5306327-2$ND47037993 phases=1 Bus1=47037993.1 Bus2=46901883.1 LineCode=2_CLP_1PH_12KV_1 Length=0.449019 units=km
New Line.P5196701-1$ND47037993 phases=1 Bus1=47037993.1 Bus2=46901946.1 LineCode=2_CLP_1PH_12KV_1 Length=0.125793 units=km
New Line.P5306417-1$ND47037042 phases=1 Bus1=47037042.2 Bus2=46902594.2 LineCode=1/0_CLP_1PH_12KV_1 Length=0.049516 units=km
New Line.P5171660-1$P5152840-2 phases=1 Bus1=46902891.2 Bus2=46902954.2 LineCode=1/0_CLP_1PH_12KV_1 Length=0.197141 units=km
New Line.P5152519-1$206569292 phases=1 Bus1=206569294.3 Bus2=46944490.3 LineCode=2_CLP_1PH_12KV_1 Length=0.216996 units=km
New Line.P5467223-1$P5368078-2 phases=1 Bus1=46902099.1 Bus2=46967267.1 LineCode=2_CLP_1PH_12KV_1 Length=0.296251 units=km
New Line.99745359$P5541979-1 phases=2 Bus1=99745362.1.2 Bus2=96119344.1.2 LineCode=2_CLP_2PH_12KV_2 Length=0.003428 units=km
New Line.PH514$BS0057-T phases=3 Bus1=46965038.1.2.3 Bus2=171803098.1.2.3 LineCode=1/0_CLP_3PH_12KV_3 Length=0.219379 units=km
New Line.206569319$206569265 phases=1 Bus1=206569321.2 Bus2=206569267.2 LineCode=1/0_JCN_1PH_12KV_1 Length=0.028889 units=km
New Line.P5508087-2$242844178 phases=1 Bus1=46967191.1 Bus2=242844181.1 LineCode=1/0_JCN_1PH_12KV_1 Length=0.001436 units=km
New Line.275359289$J279-2P phases=1 Bus1=275359292.2 Bus2=275358988.2 LineCode=2_JCN_1PH_12KV_1 Length=0.112488 units=km
New Line.P5136277-2$FPH787 phases=1 Bus1=46946112.2 Bus2=46946052.2 LineCode=2_CLP_1PH_12KV_1 Length=0.060879 units=km
New Line.4063878E$P5360172-1 phases=2 Bus1=46964626.1.3 Bus2=46964533.1.3 LineCode=2_CLP_2PH_12KV_2 Length=0.141412 units=km
New Line.46967084$46999352 phases=1 Bus1=46999354.1 Bus2=46967086.1 LineCode=2_CLP_1PH_12KV_1 Length=0.077583 units=km
New Line.206569373$ND47000098 phases=3 Bus1=206569375.1.2.3 Bus2=47000098.1.2.3 LineCode=350_CLP_3PH_12KV_3 Length=0.075704 units=km
New Line.P5152530-1$ND47036760 phases=1 Bus1=46903248.3 Bus2=47036760.3 LineCode=2_AL_1PH_12KV_1 Length=0.076357 units=km
New Line.69833791$ND145837135 phases=3 Bus1=145837135.1.2.3 Bus2=69833793.1.2.3 LineCode=2_CLP_3PH_12KV_3 Length=0.029343 units=km
New Line.72590849$ND145837135 phases=1 Bus1=145837135.1 Bus2=72590851.1 LineCode=2_CLP_1PH_12KV_1 Length=0.072332 units=km
New Line.46926467$P5492449-1 phases=1 Bus1=46926470.2 Bus2=46926483.2 LineCode=1/0_CU_1PH_12KV_1 Length=0.004202 units=km
New Line.46999228$P5508013-1 phases=2 Bus1=46999231.1.3 Bus2=46966150.1.3 LineCode=1/0_CU_2PH_12KV_2 Length=0.002875 units=km
New Line.P5171718-2$46925204 phases=1 Bus1=46925206.2 Bus2=46925137.2 LineCode=1/0_CU_1PH_12KV_1 Length=0.387872 units=km
New Line.46999016$FD77012 phases=1 Bus1=46925590.2 Bus2=46999018.2 LineCode=1/0_CU_1PH_12KV_1 Length=0.009536 units=km
New Line.ND89925219$4429922E phases=3 Bus1=89925219.1.2.3 Bus2=89925192.1.2.3 LineCode=1/0_ATW_3PH_12KV_3 Length=0.071852 units=km
New Line.46999045$46999035 phases=2 Bus1=46999047.2.3 Bus2=46999037.2.3 LineCode=2_CLP_2PH_12KV_2 Length=0.159562 units=km
New Line.BS0095-1$ND47001692 phases=1 Bus1=46927543.1 Bus2=47001692.1 LineCode=2_CLP_1PH_12KV_1 Length=0.010159 units=km
New Line.ND95457729$85438311 phases=1 Bus1=95457729.1 Bus2=85438314.1 LineCode=2_CLP_1PH_12KV_1 Length=0.001545 units=km
New Line.ND95457729$95457778 phases=1 Bus1=95457729.1 Bus2=95457781.1 LineCode=2_CLP_1PH_12KV_1 Length=0.00074 units=km
New Line.ND169647623$PMS1847-1 phases=1 Bus1=46927192.1 Bus2=169647623.1 LineCode=2_CLP_1PH_12KV_1 Length=0.004898 units=km
New Line.236986177$236986150 phases=1 Bus1=236986179.2 Bus2=236986152.2 LineCode=1/0_JCN_1PH_12KV_1 Length=0.035785 units=km
New Line.260619645$P5725987-1 phases=2 Bus1=260619648.2.3 Bus2=260619528.2.3 LineCode=1/0_JCN_2PH_12KV_2 Length=0.003159 units=km
New Line.ND47036760$46876813 phases=1 Bus1=47036760.3 Bus2=46876815.3 LineCode=2_CLP_1PH_12KV_1 Length=0.07895 units=km
New Line.196970240$P5431972-2 phases=1 Bus1=196970243.2 Bus2=46899756.2 LineCode=2_AL_1PH_12KV_1 Length=0.001828 units=km
New Line.B5175100-2$ND47036760 phases=1 Bus1=47036760.3 Bus2=46903329.3 LineCode=2_AL_1PH_12KV_1 Length=0.106287 units=km
New Line.P5389851-1$ND47036760 phases=1 Bus1=47036760.3 Bus2=46924934.3 LineCode=2_AL_1PH_12KV_1 Length=0.138908 units=km
New Line.P5306374-1$ND47000098 phases=1 Bus1=47000098.3 Bus2=46944562.3 LineCode=350_CLP_1PH_12KV_1 Length=0.003655 units=km
New Line.4063879E$P5425818-1 phases=3 Bus1=46964639.1.2.3 Bus2=46964581.1.2.3 LineCode=2_CLP_3PH_12KV_3 Length=0.030361 units=km
New Line.ND47000098$ND47000099 phases=3 Bus1=47000098.1.2.3 Bus2=47000099.1.2.3 LineCode=350_CLP_3PH_12KV_3 Length=0.058739 units=km
New Line.PH786$J022A-2P phases=1 Bus1=46964724.1 Bus2=94592198.1 LineCode=2_CLP_1PH_12KV_1 Length=0.037195 units=km
New Line.ND109000320$109000274 phases=1 Bus1=109000277.1 Bus2=109000320.1 LineCode=1/0_JCN_1PH_12KV_1 Length=0.009708 units=km
New Line.171071667$ND175182543 phases=1 Bus1=175182543.3 Bus2=171071670.3 LineCode=1/0_JCN_1PH_12KV_1 Length=0.004322 units=km
New Line.ND175182543$175182563 phases=1 Bus1=175182543.3 Bus2=175182566.3 LineCode=1/0_JCN_1PH_12KV_1 Length=0.011948 units=km
New Line.ND241595452$243036425 phases=1 Bus1=243036428.3 Bus2=241595452.3 LineCode=2_CLP_1PH_12KV_1 Length=0.010248 units=km
New Line.P5505134-2$85438044 phases=1 Bus1=85438046.3 Bus2=46877010.3 LineCode=2_CLP_1PH_12KV_1 Length=0.04156 units=km
New Line.J615A-4P$72590390 phases=1 Bus1=72590156.3 Bus2=72590393.3 LineCode=2_CLP_1PH_12KV_1 Length=0.007585 units=km
New Line.201095003$PME7705-2 phases=3 Bus1=203919002.1.2.3 Bus2=201095006.1.2.3 LineCode=1/0_JCN_3PH_12KV_3 Length=0.001694 units=km
New Line.206569265$P5634434-1 phases=1 Bus1=206569268.2 Bus2=206569193.2 LineCode=1/0_JCN_1PH_12KV_1 Length=0.004968 units=km
New Line.225439739$J725-2P phases=2 Bus1=225439338.1.2 Bus2=225439742.1.2 LineCode=2_JCN_2PH_12KV_2 Length=0.110972 units=km
New Line.242844178$242844205 phases=1 Bus1=242844180.1 Bus2=242844207.1 LineCode=1/0_JCN_1PH_12KV_1 Length=0.264556 units=km
New Line.P5306417-2$P5306410-1 phases=1 Bus1=46902603.2 Bus2=46902522.2 LineCode=1/0_CLP_1PH_12KV_1 Length=0.209322 units=km
New Line.P5445534-2$ND47000099 phases=1 Bus1=47000099.3 Bus2=46944643.3 LineCode=350_CLP_1PH_12KV_1 Length=0.142235 units=km
New Line.P5152519-2$46966287 phases=1 Bus1=46944499.3 Bus2=46966289.3 LineCode=2_CLP_1PH_12KV_1 Length=0.110101 units=km
New Line.46967084$P5476503-2 phases=1 Bus1=46967087.1 Bus2=46967109.1 LineCode=2_CLP_1PH_12KV_1 Length=0.002112 units=km
New Line.P5363300-2$ND46999998 phases=1 Bus1=46899828.2 Bus2=46999998.2 LineCode=2_AL_1PH_12KV_1 Length=0.165782 units=km
New Line.ND47000099$ND47000056 phases=3 Bus1=47000099.1.2.3 Bus2=47000056.1.2.3 LineCode=350_CLP_3PH_12KV_3 Length=0.035503 units=km
New Line.69833791$J7610-4P phases=3 Bus1=69833794.1.2.3 Bus2=69833692.1.2.3 LineCode=2_CLP_3PH_12KV_3 Length=0.00137 units=km
New Line.P5508083-1$72590849 phases=1 Bus1=72590852.1 Bus2=72590453.1 LineCode=2_CLP_1PH_12KV_1 Length=0.003061 units=km
New Line.4429922E$89925306 phases=2 Bus1=89925193.1.3 Bus2=89925308.1.3 LineCode=2_CLP_2PH_12KV_2 Length=0.340184 units=km
New Line.P5467353-1$BS0057-L phases=3 Bus1=171803090.1.2.3 Bus2=170997626.1.2.3 LineCode=1/0_CLP_3PH_12KV_3 Length=0.061295 units=km
New Line.225439764$J725-3P phases=2 Bus1=225439322.1.2 Bus2=225439767.1.2 LineCode=2_JCN_2PH_12KV_2 Length=0.029536 units=km
New Line.236986150$P5542205-2 phases=1 Bus1=236986153.2 Bus2=236986091.2 LineCode=1/0_JCN_1PH_12KV_1 Length=0.002927 units=km
New Line.244037062$GS0952-2 phases=2 Bus1=166909107.1.3 Bus2=244037064.1.3 LineCode=1/0_JCN_2PH_12KV_2 Length=0.162595 units=km
New Line.46876813$P5476545-1 phases=1 Bus1=46876816.3 Bus2=46876829.3 LineCode=2_CLP_1PH_12KV_1 Length=0.006529 units=km
New Line.P5389786-2$ND46999998 phases=1 Bus1=46999998.2 Bus2=46899900.2 LineCode=2_AL_1PH_12KV_1 Length=0.048015 units=km
New Line.P5199818-1$ND47000056 phases=1 Bus1=47000056.3 Bus2=46944706.3 LineCode=350_CLP_1PH_12KV_1 Length=0.027703 units=km
New Line.ND47000056$46944926 phases=3 Bus1=47000056.1.2.3 Bus2=46944928.1.2.3 LineCode=350_CLP_3PH_12KV_3 Length=0.098252 units=km
New Line.B5018521-2$BS0057-R phases=2 Bus1=171803107.1.3 Bus2=46964871.1.3 LineCode=1/0_CLP_2PH_12KV_2 Length=0.167916 units=km
New Line.4229923E$46966205 phases=1 Bus1=46966195.1 Bus2=46966207.1 LineCode=2_CLP_1PH_12KV_1 Length=0.103468 units=km
New Line.ND46999998$ND47036723 phases=1 Bus1=46999998.2 Bus2=47036723.2 LineCode=2_AL_1PH_12KV_1 Length=0.075147 units=km
New Line.P5316388-1$225439739 phases=2 Bus1=225439741.1.2 Bus2=151382949.1.2 LineCode=2_JCN_2PH_12KV_2 Length=0.190725 units=km
New Line.ND194776558$GS0952-1 phases=3 Bus1=166909098.1.2.3 Bus2=194776558.1.2.3 LineCode=1/0_CLP_3PH_12KV_3 Length=0.289608 units=km
New Line.201095053$201095003 phases=3 Bus1=201095005.1.2.3 Bus2=201095055.1.2.3 LineCode=1/0_JCN_3PH_12KV_3 Length=0.410301 units=km
New Line.J725-4P$225439789 phases=2 Bus1=225439330.1.2 Bus2=225439792.1.2 LineCode=1/0_JCN_2PH_12KV_2 Length=0.001556 units=km
New Line.242844205$P5767183-2 phases=1 Bus1=242844208.1 Bus2=242844105.1 LineCode=1/0_JCN_1PH_12KV_1 Length=0.001939 units=km
New Line.275359210$J279-3P phases=1 Bus1=275358972.2 Bus2=275359213.2 LineCode=2_JCN_1PH_12KV_1 Length=0.001954 units=km
New Line.275359314$J279-1P phases=1 Bus1=275358964.2 Bus2=275359317.2 LineCode=2_JCN_1PH_12KV_1 Length=0.002094 units=km
New Line.P5388885-2$ND47036723 phases=1 Bus1=47036723.2 Bus2=46899972.2 LineCode=2_AL_1PH_12KV_1 Length=0.039466 units=km
New Line.P5389851-2$P5205703-1 phases=1 Bus1=46924943.3 Bus2=46924862.3 LineCode=2_AL_1PH_12KV_1 Length=0.197736 units=km
New Line.102500054$102500004 phases=1 Bus1=102500056.3 Bus2=102500006.3 LineCode=2_CLP_1PH_12KV_1 Length=0.160217 units=km
New Line.109000233$ND109000320 phases=1 Bus1=109000320.1 Bus2=109000236.1 LineCode=2_CIC_1PH_12KV_1 Length=0.009212 units=km
New Line.ND109000320$109000330 phases=1 Bus1=109000320.1 Bus2=109000333.1 LineCode=1/0_JCN_1PH_12KV_1 Length=0.008795 units=km
New Line.175182414$175182441 phases=1 Bus1=175182416.3 Bus2=175182443.3 LineCode=1/0_JCN_1PH_12KV_1 Length=0.018288 units=km
New Line.171072682$ND179025626 phases=1 Bus1=171072685.2 Bus2=179025626.2 LineCode=1/0_JCN_1PH_12KV_1 Length=0.010206 units=km
New Line.171072894$ND198926004 phases=1 Bus1=171072897.2 Bus2=198926004.2 LineCode=1/0_JCN_1PH_12KV_1 Length=0.005989 units=km
New Line.ND203919837$203919940 phases=1 Bus1=203919942.2 Bus2=203919837.2 LineCode=1/0_JCN_1PH_12KV_1 Length=0.142462 units=km
New Line.ND241595452$243036398 phases=1 Bus1=241595452.3 Bus2=243036401.3 LineCode=2_CLP_1PH_12KV_1 Length=0.011168 units=km
New Line.243567565$P5313175-2 phases=1 Bus1=46942531.1 Bus2=243567567.1 LineCode=2_CLP_1PH_12KV_1 Length=0.052331 units=km
New Line.255276369$B5363501-2 phases=1 Bus1=46965785.2 Bus2=255276371.2 LineCode=2_CLP_1PH_12KV_1 Length=0.123182 units=km
New Line.ND241595452$B5174983-2 phases=1 Bus1=241595452.3 Bus2=46942603.3 LineCode=1/0_JCN_1PH_12KV_1 Length=0.059818 units=km
New Line.P5362566-2$203919969 phases=1 Bus1=203919971.2 Bus2=46944106.2 LineCode=1/0_JCN_1PH_12KV_1 Length=0.011007 units=km
New Line.46966758$85438083 phases=1 Bus1=85438085.3 Bus2=46966760.3 LineCode=2_CLP_1PH_12KV_1 Length=0.030055 units=km
New Line.91032954$P5550092-1 phases=1 Bus1=91032957.1 Bus2=91032868.1 LineCode=1/0_JCN_1PH_12KV_1 Length=0.00262 units=km
New Line.171071696$171071667 phases=1 Bus1=171071669.3 Bus2=171071698.3 LineCode=1/0_JCN_1PH_12KV_1 Length=0.019481 units=km
New Line.175182563$175182590 phases=1 Bus1=175182565.3 Bus2=175182592.3 LineCode=1/0_JCN_1PH_12KV_1 Length=0.065469 units=km
New Line.ND179025626$179025706 phases=1 Bus1=179025626.2 Bus2=179025708.2 LineCode=1/0_JCN_1PH_12KV_1 Length=0.025563 units=km
New Line.ND198926004$ND189147554 phases=1 Bus1=198926004.2 Bus2=189147554.2 LineCode=1/0_JCN_1PH_12KV_1 Length=0.004683 units=km
New Line.P5387765-1$ND203919837 phases=1 Bus1=203919837.2 Bus2=46944025.2 LineCode=1/0_JCN_1PH_12KV_1 Length=0.205326 units=km
New Line.194776664$PME7826-1 phases=1 Bus1=194776024.1 Bus2=194776667.1 LineCode=1/0_JCN_1PH_12KV_1 Length=0.002703 units=km
New Line.69833811$ND243452954 phases=3 Bus1=69833813.1.2.3 Bus2=243452954.1.2.3 LineCode=2_CLP_3PH_12KV_3 Length=0.078865 units=km
New Line.P5311922-1$ND47001692 phases=1 Bus1=47001692.1 Bus2=46927241.1 LineCode=2_CLP_1PH_12KV_1 Length=0.09517 units=km
New Line.P5344020-2$ND47001692 phases=1 Bus1=47001692.1 Bus2=46928071.1 LineCode=2_CLP_1PH_12KV_1 Length=0.233489 units=km
New Line.P5427469-2$46966394 phases=2 Bus1=46925389.1.2 Bus2=46966396.1.2 LineCode=2_CLP_2PH_12KV_2 Length=0.10507 units=km
New Line.46944916$ND47000985 phases=3 Bus1=46944918.1.2.3 Bus2=47000985.1.2.3 LineCode=350_CLP_3PH_12KV_3 Length=0.010042 units=km
New Line.69833659$P5537611-2 phases=1 Bus1=69833662.3 Bus2=69833606.3 LineCode=2_CLP_1PH_12KV_1 Length=0.003071 units=km
New Line.1623723E$PME2741-1 phases=2 Bus1=46925314.1.2 Bus2=46925330.1.2 LineCode=2_AL_2PH_12KV_2 Length=0.019793 units=km
New Line.46966287$P5467205-2 phases=1 Bus1=46966290.3 Bus2=46966312.3 LineCode=2_CLP_1PH_12KV_1 Length=0.006032 units=km
New Line.P5467353-1$ND47000197 phases=3 Bus1=170997626.1.2.3 Bus2=47000197.1.2.3 LineCode=1/0_CLP_3PH_12KV_3 Length=0.213772 units=km
New Line.89925306$P5541565-1 phases=2 Bus1=89925309.1.3 Bus2=89925250.1.3 LineCode=2_CLP_2PH_12KV_2 Length=0.004491 units=km
New Line.ND91707695$ND47036723 phases=1 Bus1=47036723.2 Bus2=91707695.2 LineCode=2_AL_1PH_12KV_1 Length=0.208513 units=km
New Line.P5310708-1$ND203919837 phases=1 Bus1=203919837.2 Bus2=46944169.2 LineCode=1/0_JCN_1PH_12KV_1 Length=0.048409 units=km
New Line.72590390$72590417 phases=1 Bus1=72590392.3 Bus2=72590419.3 LineCode=2_CLP_1PH_12KV_1 Length=0.08297 units=km
New Line.109000330$109000427 phases=1 Bus1=109000332.1 Bus2=109000429.1 LineCode=1/0_JCN_1PH_12KV_1 Length=0.109973 units=km
New Line.160244765$109000233 phases=1 Bus1=109000235.1 Bus2=160244767.1 LineCode=1/0_JCN_1PH_12KV_1 Length=0.063875 units=km
New Line.ND189147554$171072929 phases=1 Bus1=189147554.2 Bus2=171072932.2 LineCode=1/0_JCN_1PH_12KV_1 Length=0.00876 units=km
New Line.175182441$P5649757-1 phases=1 Bus1=175182444.3 Bus2=175182324.3 LineCode=1/0_JCN_1PH_12KV_1 Length=0.000858 units=km
New Line.ND189147554$189147564 phases=1 Bus1=189147554.2 Bus2=189147566.2 LineCode=1/0_JCN_1PH_12KV_1 Length=0.029726 units=km
New Line.ND189147554$198926119 phases=1 Bus1=189147554.2 Bus2=198926122.2 LineCode=1/0_JCN_1PH_12KV_1 Length=0.008864 units=km
New Line.ND243567076$243036398 phases=1 Bus1=243036400.3 Bus2=243567076.3 LineCode=2_CLP_1PH_12KV_1 Length=0.200814 units=km
New Line.ND243567608$243567565 phases=1 Bus1=243567568.1 Bus2=243567608.1 LineCode=2_CLP_1PH_12KV_1 Length=0.012274 units=km
New Line.255276444$255276369 phases=1 Bus1=255276372.2 Bus2=255276447.2 LineCode=2_CLP_1PH_12KV_1 Length=0.024893 units=km
New Line.102500004$P5505254-2 phases=1 Bus1=102500007.3 Bus2=46876425.3 LineCode=2_CLP_1PH_12KV_1 Length=0.001004 units=km
New Line.46966758$P5492252-1 phases=1 Bus1=46966761.3 Bus2=46966774.3 LineCode=2_CLP_1PH_12KV_1 Length=0.004416 units=km
New Line.ND91707695$111292133 phases=1 Bus1=91707695.2 Bus2=111292135.2 LineCode=2_CLP_1PH_12KV_1 Length=0.125355 units=km
New Line.P5360992-1$225439764 phases=2 Bus1=225439766.1.2 Bus2=151382908.1.2 LineCode=2_JCN_2PH_12KV_2 Length=0.071609 units=km
New Line.194776582$ND194776558 phases=1 Bus1=194776558.3 Bus2=194776584.3 LineCode=1/0_JCN_1PH_12KV_1 Length=0.027035 units=km
New Line.PME1992-4$244037062 phases=3 Bus1=244037065.1.2.3 Bus2=244036656.1.2.3 LineCode=1/0_JCN_3PH_12KV_3 Length=0.001693 units=km
New Line.275359237$J279-4P phases=1 Bus1=275358980.2 Bus2=275359240.2 LineCode=1/0_JCN_1PH_12KV_1 Length=0.002529 units=km
New Line.B5467352-1$ND47000197 phases=2 Bus1=47000197.1.2 Bus2=46875809.1.2 LineCode=1/0_CLP_2PH_12KV_2 Length=0.048098 units=km
New Line.P5620139-2$ND91707695 phases=1 Bus1=91707695.2 Bus2=46900116.2 LineCode=2_AL_1PH_12KV_1 Length=0.014615 units=km