! OpenDSS script generated from multiconductor network
Clear

New Circuit.mc_network basekv=12.0 pu=1.000000 angle=0.00 frequency=60.0 phases=3 Mvasc3=143993 Mvasc1=47997.6
~ bus1=-88888843733998.1.2.3

! Line codes
New LineCode.1000_JCN_3PH_12KV_3 nphases=3 units=km Rmatrix=[ 0.007245 | 0 0.007245 | 0 0 0.007245 ] Xmatrix=[ 0.010967 | 0 0.010967 | 0 0 0.010967 ] Cmatrix=[ 0 | 0 0 | 0 0 0 ]
New LineCode.1/0_JCN_3PH_12KV_3 nphases=3 units=km Rmatrix=[ 0.007025 | 0 0.007025 | 0 0 0.007025 ] Xmatrix=[ 0.002147 | 0 0.002147 | 0 0 0.002147 ] Cmatrix=[ 0 | 0 0 | 0 0 0 ]
New LineCode.1/0_JCN_2PH_12KV_2 nphases=2 units=km Rmatrix=[ 0.010059 | 0 0.010059 ] Xmatrix=[ 0.003074 | 0 0.003074 ] Cmatrix=[ 0 | 0 0 ]
New LineCode.1/0_JCN_1PH_12KV_1 nphases=1 units=km Rmatrix=[ 0.002215 ] Xmatrix=[ 0.000677 ] Cmatrix=[ 0 ]
New LineCode.2_CLP_1PH_12KV_1 nphases=1 units=km Rmatrix=[ 0.057357 ] Xmatrix=[ 0.01209 ] Cmatrix=[ 0 ]
New LineCode.1/0_CLP_3PH_12KV_3 nphases=3 units=km Rmatrix=[ 0.050213 | 0 0.050213 | 0 0 0.050213 ] Xmatrix=[ 0.015347 | 0 0.015347 | 0 0 0.015347 ] Cmatrix=[ 0 | 0 0 | 0 0 0 ]
New LineCode.350_CLP_3PH_12KV_3 nphases=3 units=km Rmatrix=[ 0.00071 | 0 0.00071 | 0 0 0.00071 ] Xmatrix=[ 0.000539 | 0 0.000539 | 0 0 0.000539 ] Cmatrix=[ 0 | 0 0 | 0 0 0 ]
New LineCode.750_JCN_3PH_12KV_3 nphases=3 units=km Rmatrix=[ 0.07363 | 0 0.07363 | 0 0 0.07363 ] Xmatrix=[ 0.090427 | 0 0.090427 | 0 0 0.090427 ] Cmatrix=[ 0 | 0 0 | 0 0 0 ]
New LineCode.2_CLP_3PH_12KV_3 nphases=3 units=km Rmatrix=[ 0.003483 | 0 0.003483 | 0 0 0.003483 ] Xmatrix=[ 0.000734 | 0 0.000734 | 0 0 0.000734 ] Cmatrix=[ 0 | 0 0 | 0 0 0 ]
New LineCode.750_CLP_3PH_12KV_3 nphases=3 units=km Rmatrix=[ 0.008309 | 0 0.008309 | 0 0 0.008309 ] Xmatrix=[ 0.010204 | 0 0.010204 | 0 0 0.010204 ] Cmatrix=[ 0 | 0 0 | 0 0 0 ]
New LineCode.350_JCN_3PH_12KV_3 nphases=3 units=km Rmatrix=[ 0.036315 | 0 0.036315 | 0 0 0.036315 ] Xmatrix=[ 0.027592 | 0 0.027592 | 0 0 0.027592 ] Cmatrix=[ 0 | 0 0 | 0 0 0 ]
New LineCode.4_ACSR_3PH_12KV_3 nphases=3 units=km Rmatrix=[ 0.004675 | 0 0.004675 | 0 0 0.004675 ] Xmatrix=[ 0.001715 | 0 0.001715 | 0 0 0.001715 ] Cmatrix=[ 0 | 0 0 | 0 0 0 ]
New LineCode.2_CLP_2PH_12KV_2 nphases=2 units=km Rmatrix=[ 0.108423 | 0 0.108423 ] Xmatrix=[ 0.022854 | 0 0.022854 ] Cmatrix=[ 0 | 0 0 ]
New LineCode.2_JCN_1PH_12KV_1 nphases=1 units=km Rmatrix=[ 0.002693 ] Xmatrix=[ 0.000568 ] Cmatrix=[ 0 ]
New LineCode.1/0_CLP_1PH_12KV_1 nphases=1 units=km Rmatrix=[ 0.086165 ] Xmatrix=[ 0.026336 ] Cmatrix=[ 0 ]
New LineCode.477_ACSR_3PH_12KV_3 nphases=3 units=km Rmatrix=[ 0.01409 | 0 0.01409 | 0 0 0.01409 ] Xmatrix=[ 0.04337 | 0 0.04337 | 0 0 0.04337 ] Cmatrix=[ 0 | 0 0 | 0 0 0 ]
New LineCode.UNK_UNK_3PH_12KV_4 nphases=4 units=km Rmatrix=[ 0.006152 | 0 0.006152 | 0 0 0.006152 | 0 0 0 0.006152 ] Xmatrix=[ 0.012268 | 0 0.012268 | 0 0 0.012268 | 0 0 0 0.012268 ] Cmatrix=[ 0 | 0 0 | 0 0 0 | 0 0 0 0 ]
New LineCode.336_ACSR_3PH_336_ACSR_N_12KV_4 nphases=4 units=km Rmatrix=[ 0.011614 | 0 0.011614 | 0 0 0.011614 | 0 0 0 0.011614 ] Xmatrix=[ 0.023161 | 0 0.023161 | 0 0 0.023161 | 0 0 0 0.023161 ] Cmatrix=[ 0 | 0 0 | 0 0 0 | 0 0 0 0 ]
New LineCode.2_ACSR_3PH_2_ACSR_N_12KV_4 nphases=4 units=km Rmatrix=[ 0.003249 | 0 0.003249 | 0 0 0.003249 | 0 0 0 0.003249 ] Xmatrix=[ 0.001574 | 0 0.001574 | 0 0 0.001574 | 0 0 0 0.001574 ] Cmatrix=[ 0 | 0 0 | 0 0 0 | 0 0 0 0 ]
New LineCode.4_ACSR_2PH_12KV_2 nphases=2 units=km Rmatrix=[ 0.161618 | 0 0.161618 ] Xmatrix=[ 0.059305 | 0 0.059305 ] Cmatrix=[ 0 | 0 0 ]
New LineCode.2_CLP_ABC_12_3 nphases=3 units=km Rmatrix=[ 0.0387 | 0 0.0387 | 0 0 0.0387 ] Xmatrix=[ 0.008157 | 0 0.008157 | 0 0 0.008157 ] Cmatrix=[ 0 | 0 0 | 0 0 0 ]
New LineCode.1/0_ACSR_3PH_12KV_3 nphases=3 units=km Rmatrix=[ 0.02181 | 0 0.02181 | 0 0 0.02181 ] Xmatrix=[ 0.017365 | 0 0.017365 | 0 0 0.017365 ] Cmatrix=[ 0 | 0 0 | 0 0 0 ]
New LineCode.1/0_JCN_C_12_1 nphases=1 units=km Rmatrix=[ 0.003223 ] Xmatrix=[ 0.000985 ] Cmatrix=[ 0 ]
New LineCode.954_ACSR_3PH_12KV_3 nphases=3 units=km Rmatrix=[ 1e-05 | 0 1e-05 | 0 0 1e-05 ] Xmatrix=[ 1e-05 | 0 1e-05 | 0 0 1e-05 ] Cmatrix=[ 0 | 0 0 | 0 0 0 ]

! Lines
New Line.GS8522-4$GS8523-2 phases=3 Bus1=232417570.1.2.3 Bus2=232417301.1.2.3 LineCode=1000_JCN_3PH_12KV_3 Length=1.65129 units=km
New Line.GS8523-4$PME8174-1 phases=3 Bus1=232417319.1.2.3 Bus2=252517486.1.2.3 LineCode=1000_JCN_3PH_12KV_3 Length=0.157083 units=km
New Line.214905355$PME8174-4 phases=3 Bus1=252517468.1.2.3 Bus2=214905358.1.2.3 LineCode=1/0_JCN_3PH_12KV_3 Length=0.000878 units=km
New Line.ND236339031$PME8174-2 phases=3 Bus1=252517477.1.2.3 Bus2=236339031.1.2.3 LineCode=1000_JCN_3PH_12KV_3 Length=0.126307 units=km
New Line.252517619$PME8174-3 phases=2 Bus1=252517459.2.3 Bus2=252517622.2.3 LineCode=1/0_JCN_2PH_12KV_2 Length=0.000312 units=km
New Line.ND236339031$PME8186-1 phases=3 Bus1=236339031.1.2.3 Bus2=218427764.1.2.3 LineCode=1000_JCN_3PH_12KV_3 Length=0.298088 units=km
New Line.214905355$ND239563478 phases=3 Bus1=214905357.1.2.3 Bus2=239563478.1.2.3 LineCode=1/0_JCN_3PH_12KV_3 Length=0.006078 units=km
New Line.214905461$ND239563478 phases=1 Bus1=239563478.1 Bus2=214905463.1 LineCode=1/0_JCN_1PH_12KV_1 Length=0.051363 units=km
New Line.ND239563478$218140950 phases=3 Bus1=239563478.1.2.3 Bus2=218140952.1.2.3 LineCode=1/0_JCN_3PH_12KV_3 Length=0.141503 units=km
New Line.ND256648286$252517619 phases=2 Bus1=252517621.2.3 Bus2=256648286.2.3 LineCode=1/0_JCN_2PH_12KV_2 Length=0.002575 units=km
New Line.239563767$ND256648286 phases=2 Bus1=256648286.2.3 Bus2=239563769.2.3 LineCode=1/0_JCN_2PH_12KV_2 Length=0.127953 units=km
New Line.ND256648286$256648940 phases=1 Bus1=256648286.3 Bus2=256648942.3 LineCode=1/0_JCN_1PH_12KV_1 Length=0.160343 units=km
New Line.214905461$P5718016-2 phases=1 Bus1=214905464.1 Bus2=214905296.1 LineCode=1/0_JCN_1PH_12KV_1 Length=0.002791 units=km
New Line.218140950$ND218139682 phases=3 Bus1=218140953.1.2.3 Bus2=218139682.1.2.3 LineCode=1/0_JCN_3PH_12KV_3 Length=0.009034 units=km
New Line.218914669$PME8186-4 phases=3 Bus1=218427746.1.2.3 Bus2=218914672.1.2.3 LineCode=1/0_JCN_3PH_12KV_3 Length=0.002941 units=km
New Line.ND218139682$218140925 phases=1 Bus1=218139682.2 Bus2=218140928.2 LineCode=1/0_JCN_1PH_12KV_1 Length=0.010645 units=km
New Line.218140993$ND218139682 phases=1 Bus1=218139682.3 Bus2=218140996.3 LineCode=1/0_JCN_1PH_12KV_1 Length=0.005903 units=km
New Line.ND218139682$218141023 phases=1 Bus1=218139682.1 Bus2=218141026.1 LineCode=1/0_JCN_1PH_12KV_1 Length=0.009881 units=km
New Line.PME8187-1$PME8186-2 phases=3 Bus1=218427755.1.2.3 Bus2=218427908.1.2.3 LineCode=1000_JCN_3PH_12KV_3 Length=0.315673 units=km
New Line.PME8186-3$ND218428083 phases=3 Bus1=218427737.1.2.3 Bus2=218428083.1.2.3 LineCode=1/0_JCN_3PH_12KV_3 Length=0.009834 units=km
New Line.239563767$ND239563544 phases=2 Bus1=239563770.2.3 Bus2=239563544.2.3 LineCode=1/0_JCN_2PH_12KV_2 Length=0.005945 units=km
New Line.256648940$ND256648754 phases=1 Bus1=256648943.3 Bus2=256648754.3 LineCode=1/0_JCN_1PH_12KV_1 Length=0.005078 units=km
New Line.ND218428083$218428398 phases=1 Bus1=218428083.1 Bus2=218428400.1 LineCode=1/0_JCN_1PH_12KV_1 Length=0.065538 units=km
New Line.218914669$218914713 phases=3 Bus1=218914671.1.2.3 Bus2=218914715.1.2.3 LineCode=1/0_JCN_3PH_12KV_3 Length=0.220367 units=km
New Line.ND239563544$239563794 phases=1 Bus1=239563544.2 Bus2=239563797.2 LineCode=1/0_JCN_1PH_12KV_1 Length=0.005027 units=km
New Line.ND256648754$256648965 phases=1 Bus1=256648754.3 Bus2=256648968.3 LineCode=1/0_JCN_1PH_12KV_1 Length=0.008021 units=km
New Line.ND256648754$256648990 phases=1 Bus1=256648754.3 Bus2=256648993.3 LineCode=1/0_JCN_1PH_12KV_1 Length=0.013897 units=km
New Line.P5635446-1$165230694 phases=1 Bus1=165230082.2 Bus2=165230697.2 LineCode=1/0_JCN_1PH_12KV_1 Length=0.003414 units=km
New Line.PME7410-4$ND178321293 phases=3 Bus1=178321293.1.2.3 Bus2=173971274.1.2.3 LineCode=1000_JCN_3PH_12KV_3 Length=0.339877 units=km
New Line.ND178321293$176365277 phases=3 Bus1=178321293.1.2.3 Bus2=176365279.1.2.3 LineCode=1/0_JCN_3PH_12KV_3 Length=0.009558 units=km
New Line.176365430$ND178321293 phases=3 Bus1=178321293.1.2.3 Bus2=176365432.1.2.3 LineCode=1/0_JCN_3PH_12KV_3 Length=0.113686 units=km
New Line.ND178321607$176365875 phases=1 Bus1=178321607.2 Bus2=176365877.2 LineCode=1/0_JCN_1PH_12KV_1 Length=0.25005 units=km
New Line.ND178321607$178321654 phases=1 Bus1=178321607.2 Bus2=178321656.2 LineCode=1/0_JCN_1PH_12KV_1 Length=0.072859 units=km
New Line.28465029$197116491 phases=1 Bus1=28465031.1 Bus2=197116493.1 LineCode=2_CLP_1PH_12KV_1 Length=0.155246 units=km
New Line.221391905$221391947 phases=1 Bus1=221391949.3 Bus2=221391907.3 LineCode=1/0_JCN_1PH_12KV_1 Length=0.098126 units=km
New Line.ND218139748$218140993 phases=1 Bus1=218140995.3 Bus2=218139748.3 LineCode=1/0_JCN_1PH_12KV_1 Length=0.002942 units=km
New Line.218140925$218140685 phases=1 Bus1=218140927.2 Bus2=218140687.2 LineCode=1/0_JCN_1PH_12KV_1 Length=0.014217 units=km
New Line.218141023$ND257799468 phases=1 Bus1=218141025.1 Bus2=257799468.1 LineCode=1/0_JCN_1PH_12KV_1 Length=0.029539 units=km
New Line.ND257799468$218140628 phases=1 Bus1=257799468.1 Bus2=218140630.1 LineCode=1/0_JCN_1PH_12KV_1 Length=0.01887 units=km
New Line.ND218139748$218140658 phases=1 Bus1=218139748.3 Bus2=218140660.3 LineCode=1/0_JCN_1PH_12KV_1 Length=0.008267 units=km
New Line.ND218139748$218141048 phases=1 Bus1=218139748.3 Bus2=218141050.3 LineCode=1/0_JCN_1PH_12KV_1 Length=0.134215 units=km
New Line.218428398$P5730953-2 phases=1 Bus1=218428401.1 Bus2=218428167.1 LineCode=1/0_JCN_1PH_12KV_1 Length=0.002703 units=km
New Line.218914713$ND218914184 phases=3 Bus1=218914716.1.2.3 Bus2=218914184.1.2.3 LineCode=1/0_JCN_3PH_12KV_3 Length=0.010005 units=km
New Line.239563794$239563713 phases=1 Bus1=239563796.2 Bus2=239563715.2 LineCode=1/0_JCN_1PH_12KV_1 Length=0.044992 units=km
New Line.256648965$256648915 phases=1 Bus1=256648967.3 Bus2=256648917.3 LineCode=1/0_JCN_1PH_12KV_1 Length=0.025742 units=km
New Line.256648990$256649015 phases=1 Bus1=256648992.3 Bus2=256649017.3 LineCode=1/0_JCN_1PH_12KV_1 Length=0.043263 units=km
New Line.ND257799468$257799551 phases=1 Bus1=257799468.1 Bus2=257799553.1 LineCode=1/0_JCN_1PH_12KV_1 Length=0.029799 units=km
New Line.218140685$P5743239-2 phases=1 Bus1=218140688.2 Bus2=218139818.2 LineCode=1/0_JCN_1PH_12KV_1 Length=0.002058 units=km
New Line.GS8188-4$PME8187-2 phases=3 Bus1=218427899.1.2.3 Bus2=218427584.1.2.3 LineCode=1000_JCN_3PH_12KV_3 Length=0.263436 units=km
New Line.ND218914184$218653000 phases=1 Bus1=218914184.1 Bus2=218653003.1 LineCode=1/0_JCN_1PH_12KV_1 Length=0.010423 units=km
New Line.ND218914184$218914755 phases=1 Bus1=218914184.2 Bus2=218914758.2 LineCode=1/0_JCN_1PH_12KV_1 Length=0.010151 units=km
New Line.ND218914184$218914780 phases=1 Bus1=218914184.2 Bus2=218914783.2 LineCode=1/0_JCN_1PH_12KV_1 Length=0.009077 units=km
New Line.ND218914184$218914805 phases=1 Bus1=218914184.3 Bus2=218914808.3 LineCode=1/0_JCN_1PH_12KV_1 Length=0.009102 units=km
New Line.ND218914184$218914830 phases=1 Bus1=218914184.1 Bus2=218914833.1 LineCode=1/0_JCN_1PH_12KV_1 Length=0.009937 units=km
New Line.PME8187-3$219132176 phases=3 Bus1=218427881.1.2.3 Bus2=219132179.1.2.3 LineCode=1/0_JCN_3PH_12KV_3 Length=0.00186 units=km
New Line.218140628$P5743237-1 phases=1 Bus1=218140631.1 Bus2=218140307.1 LineCode=1/0_JCN_1PH_12KV_1 Length=0.002942 units=km
New Line.218140658$P5743235-2 phases=1 Bus1=218140661.3 Bus2=218140488.3 LineCode=1/0_JCN_1PH_12KV_1 Length=0.002122 units=km
New Line.218141048$223762534 phases=1 Bus1=218141051.3 Bus2=223762537.3 LineCode=1/0_JCN_1PH_12KV_1 Length=0.015997 units=km
New Line.239563713$P5745577-2 phases=1 Bus1=239563716.2 Bus2=239563648.2 LineCode=1/0_JCN_1PH_12KV_1 Length=0.000733 units=km
New Line.256648915$P5745570-1 phases=1 Bus1=256648918.3 Bus2=256648442.3 LineCode=1/0_JCN_1PH_12KV_1 Length=0.001533 units=km
New Line.256649015$P5745573-2 phases=1 Bus1=256649018.3 Bus2=256648519.3 LineCode=1/0_JCN_1PH_12KV_1 Length=0.003665 units=km
New Line.257799551$P5718335-1 phases=1 Bus1=257799554.1 Bus2=257799484.1 LineCode=1/0_JCN_1PH_12KV_1 Length=0.002162 units=km
New Line.218653000$218652850 phases=1 Bus1=218653002.1 Bus2=218652852.1 LineCode=1/0_JCN_1PH_12KV_1 Length=0.059673 units=km
New Line.218914830$218914855 phases=1 Bus1=218914832.1 Bus2=218914857.1 LineCode=1/0_JCN_1PH_12KV_1 Length=0.046734 units=km
New Line.218914755$218914880 phases=1 Bus1=218914757.2 Bus2=218914882.2 LineCode=1/0_JCN_1PH_12KV_1 Length=0.103393 units=km
New Line.218914780$218914905 phases=1 Bus1=218914782.2 Bus2=218914907.2 LineCode=1/0_JCN_1PH_12KV_1 Length=0.101082 units=km
New Line.218914805$218914930 phases=1 Bus1=218914807.3 Bus2=218914932.3 LineCode=1/0_JCN_1PH_12KV_1 Length=0.071308 units=km
New Line.219132176$219132203 phases=3 Bus1=219132178.1.2.3 Bus2=219132205.1.2.3 LineCode=1/0_JCN_3PH_12KV_3 Length=0.042724 units=km
New Line.218140710$P5743239-1 phases=1 Bus1=218139809.2 Bus2=218140713.2 LineCode=1/0_JCN_1PH_12KV_1 Length=0.002766 units=km
New Line.223762489$223762534 phases=1 Bus1=223762536.3 Bus2=223762491.3 LineCode=1/0_JCN_1PH_12KV_1 Length=0.171238 units=km
New Line.ND222081546$222082971 phases=1 Bus1=222081546.3 Bus2=222082974.3 LineCode=1/0_JCN_1PH_12KV_1 Length=0.010099 units=km
New Line.ND222081546$222082998 phases=1 Bus1=222081546.3 Bus2=222083001.3 LineCode=1/0_JCN_1PH_12KV_1 Length=0.002675 units=km
New Line.28441358$P5500803-1 phases=1 Bus1=28441374.2 Bus2=28441361.2 LineCode=2_CLP_1PH_12KV_1 Length=0.001965 units=km
New Line.28441450$P5500804-1 phases=1 Bus1=28441466.2 Bus2=28441453.2 LineCode=2_CLP_1PH_12KV_1 Length=0.001995 units=km
New Line.P5501054-1$28442070 phases=1 Bus1=28442086.1 Bus2=28442073.1 LineCode=2_CLP_1PH_12KV_1 Length=0.003936 units=km
New Line.98321395$98321470 phases=1 Bus1=98321397.1 Bus2=98321472.1 LineCode=2_CLP_1PH_12KV_1 Length=0.087031 units=km
New Line.P5507000-A$187600607 phases=3 Bus1=187600610.1.2.3 Bus2=151793835.1.2.3 LineCode=1/0_CLP_3PH_12KV_3 Length=0.004958 units=km
New Line.P5635381-2$165230851 phases=1 Bus1=165229955.1 Bus2=165230854.1 LineCode=1/0_JCN_1PH_12KV_1 Length=0.001621 units=km
New Line.P5743237-2$ND218140466 phases=1 Bus1=218140316.1 Bus2=218140466.1 LineCode=1/0_JCN_1PH_12KV_1 Length=0.003086 units=km
New Line.218428371$GS8188-5 phases=2 Bus1=218427593.1.3 Bus2=218428373.1.3 LineCode=1/0_JCN_2PH_12KV_2 Length=0.083313 units=km
New Line.218652850$ND218652422 phases=1 Bus1=218652853.1 Bus2=218652422.1 LineCode=1/0_JCN_1PH_12KV_1 Length=0.00293 units=km
New Line.218914855$P5745937-2 phases=1 Bus1=218914858.1 Bus2=218914201.1 LineCode=1/0_JCN_1PH_12KV_1 Length=0.00287 units=km
New Line.218914880$P5745938-2 phases=1 Bus1=218914883.2 Bus2=218914279.2 LineCode=1/0_JCN_1PH_12KV_1 Length=0.00365 units=km
New Line.218914905$P5745939-1 phases=1 Bus1=218914908.2 Bus2=218914351.2 LineCode=1/0_JCN_1PH_12KV_1 Length=0.00324 units=km
New Line.218914930$P5745940-1 phases=1 Bus1=218914933.3 Bus2=218914432.3 LineCode=1/0_JCN_1PH_12KV_1 Length=0.003995 units=km
New Line.219132203$ND219132146 phases=3 Bus1=219132206.1.2.3 Bus2=219132146.1.2.3 LineCode=1/0_JCN_3PH_12KV_3 Length=0.004542 units=km
New Line.PME8242-2$GS8188-3 phases=3 Bus1=218427575.1.2.3 Bus2=220030203.1.2.3 LineCode=1000_JCN_3PH_12KV_3 Length=0.360603 units=km
New Line.P5745577-1$239563740 phases=1 Bus1=239563639.2 Bus2=239563743.2 LineCode=1/0_JCN_1PH_12KV_1 Length=0.000568 units=km
New Line.P5745570-2$256648890 phases=1 Bus1=256648451.3 Bus2=256648893.3 LineCode=1/0_JCN_1PH_12KV_1 Length=0.000312 units=km
New Line.176365985$P5656970-1 phases=1 Bus1=176365988.1 Bus2=176365672.1 LineCode=1/0_JCN_1PH_12KV_1 Length=0.003086 units=km
New Line.ND188735311$194631142 phases=3 Bus1=194631145.1.2.3 Bus2=188735311.1.2.3 LineCode=1/0_JCN_3PH_12KV_3 Length=0.007815 units=km
New Line.4389591E$GS5539-4 phases=3 Bus1=28417516.1.2.3 Bus2=28439488.1.2.3 LineCode=350_CLP_3PH_12KV_3 Length=0.12774 units=km
New Line.28467762$28467854 phases=1 Bus1=28467764.1 Bus2=28467856.1 LineCode=2_CLP_1PH_12KV_1 Length=0.130519 units=km
New Line.J999-1P$P5506999T1 phases=3 Bus1=289264442.1.2.3 Bus2=28469053.1.2.3 LineCode=1/0_CLP_3PH_12KV_3 Length=0.002742 units=km
New Line.189455703$ND28508689 phases=1 Bus1=189455705.3 Bus2=28508689.3 LineCode=2_CLP_1PH_12KV_1 Length=0.10947 units=km
New Line.94059554$94059564 phases=1 Bus1=94059556.3 Bus2=94059566.3 LineCode=2_CLP_1PH_12KV_1 Length=0.10089 units=km
New Line.P5565814-1$98321420 phases=1 Bus1=98320926.1 Bus2=98321423.1 LineCode=2_CLP_1PH_12KV_1 Length=0.002773 units=km
New Line.165230694$ND165230526 phases=1 Bus1=165230696.2 Bus2=165230526.2 LineCode=1/0_JCN_1PH_12KV_1 Length=0.106892 units=km
New Line.176365277$P5647606-1 phases=2 Bus1=176365280.1.3 Bus2=176365230.1.3 LineCode=1/0_JCN_2PH_12KV_2 Length=0.002931 units=km
New Line.176365430$P5658999-1 phases=3 Bus1=176365433.1.2.3 Bus2=176365386.1.2.3 LineCode=1/0_JCN_3PH_12KV_3 Length=0.00157 units=km
New Line.176365875$P5656976-1 phases=1 Bus1=176365878.2 Bus2=176365604.2 LineCode=1/0_JCN_1PH_12KV_1 Length=0.004619 units=km
New Line.178321654$P5655941-2 phases=1 Bus1=178321657.2 Bus2=178321474.2 LineCode=1/0_JCN_1PH_12KV_1 Length=0.004141 units=km
New Line.189455728$ND28508689 phases=1 Bus1=28508689.3 Bus2=189455730.3 LineCode=2_CLP_1PH_12KV_1 Length=0.068384 units=km
New Line.189455753$ND28508689 phases=1 Bus1=28508689.3 Bus2=189455755.3 LineCode=2_CLP_1PH_12KV_1 Length=0.006407 units=km
New Line.ND188735311$194631171 phases=2 Bus1=188735311.2.3 Bus2=194631174.2.3 LineCode=1/0_JCN_2PH_12KV_2 Length=0.008305 units=km
New Line.194631196$ND188735311 phases=1 Bus1=188735311.1 Bus2=194631199.1 LineCode=1/0_JCN_1PH_12KV_1 Length=0.015805 units=km
New Line.P5746559-2$221391905 phases=1 Bus1=221391908.3 Bus2=221391791.3 LineCode=1/0_JCN_1PH_12KV_1 Length=0.003555 units=km
New Line.222082998$222082880 phases=1 Bus1=222083000.3 Bus2=222082882.3 LineCode=1/0_JCN_1PH_12KV_1 Length=0.108129 units=km
New Line.222082971$222082939 phases=1 Bus1=222082973.3 Bus2=222082941.3 LineCode=1/0_JCN_1PH_12KV_1 Length=0.089915 units=km
New Line.28441450$242603852 phases=1 Bus1=28441452.2 Bus2=242603854.2 LineCode=2_CLP_1PH_12KV_1 Length=0.102952 units=km
New Line.28441358$28442162 phases=1 Bus1=28441360.2 Bus2=28442164.2 LineCode=2_CLP_1PH_12KV_1 Length=0.077537 units=km
New Line.P5500794-1$197116491 phases=1 Bus1=197116494.1 Bus2=28465127.1 LineCode=2_CLP_1PH_12KV_1 Length=0.172863 units=km
New Line.P5745573-1$256649040 phases=1 Bus1=256648510.3 Bus2=256649043.3 LineCode=1/0_JCN_1PH_12KV_1 Length=0.003418 units=km
New Line.218140575$ND218140466 phases=1 Bus1=218140466.1 Bus2=218140577.1 LineCode=1/0_JCN_1PH_12KV_1 Length=0.090953 units=km
New Line.ND218140466$218140600 phases=1 Bus1=218140466.1 Bus2=218140603.1 LineCode=1/0_JCN_1PH_12KV_1 Length=0.002666 units=km
New Line.218140735$218140710 phases=1 Bus1=218140712.2 Bus2=218140737.2 LineCode=1/0_JCN_1PH_12KV_1 Length=0.015283 units=km
New Line.ND218652422$P5745943-1 phases=1 Bus1=218652422.1 Bus2=218652123.1 LineCode=1/0_JCN_1PH_12KV_1 Length=0.002942 units=km
New Line.ND218652422$218652925 phases=1 Bus1=218652422.1 Bus2=218652927.1 LineCode=1/0_JCN_1PH_12KV_1 Length=0.104307 units=km
New Line.ND219132146$219132228 phases=1 Bus1=219132146.1 Bus2=219132231.1 LineCode=1/0_JCN_1PH_12KV_1 Length=0.008304 units=km
New Line.ND219132146$ND223219621 phases=3 Bus1=219132146.1.2.3 Bus2=223219621.1.2.3 LineCode=1/0_JCN_3PH_12KV_3 Length=0.008251 units=km
New Line.P5743246-2$223762489 phases=1 Bus1=223762492.3 Bus2=223762046.3 LineCode=1/0_JCN_1PH_12KV_1 Length=0.004709 units=km
New Line.GS8188-6$ND232417747 phases=3 Bus1=218427602.1.2.3 Bus2=232417747.1.2.3 LineCode=1/0_JCN_3PH_12KV_3 Length=0.068297 units=km
New Line.218428371$P5730957-1 phases=2 Bus1=218428374.1.3 Bus2=218428226.1.3 LineCode=1/0_JCN_2PH_12KV_2 Length=0.001121 units=km
New Line.ND223219621$222103855 phases=1 Bus1=223219621.3 Bus2=222103858.3 LineCode=1/0_JCN_1PH_12KV_1 Length=0.008587 units=km
New Line.ND223219621$223220129 phases=1 Bus1=223219621.1 Bus2=223220131.1 LineCode=1/0_JCN_1PH_12KV_1 Length=0.044717 units=km
New Line.ND223219621$223220361 phases=1 Bus1=223219621.2 Bus2=223220363.2 LineCode=1/0_JCN_1PH_12KV_1 Length=0.075513 units=km
New Line.239563740$239563989 phases=1 Bus1=239563742.2 Bus2=239563991.2 LineCode=1/0_JCN_1PH_12KV_1 Length=0.049792 units=km
New Line.256648890$256648863 phases=1 Bus1=256648892.3 Bus2=256648865.3 LineCode=1/0_JCN_1PH_12KV_1 Length=0.015784 units=km
New Line.256649040$256649065 phases=1 Bus1=256649042.3 Bus2=256649067.3 LineCode=1/0_JCN_1PH_12KV_1 Length=0.026191 units=km
New Line.ND28509719$28442070 phases=1 Bus1=28442072.1 Bus2=28509719.1 LineCode=2_CLP_1PH_12KV_1 Length=0.109076 units=km
New Line.98321470$P5565816-1 phases=1 Bus1=98321473.1 Bus2=98321217.1 LineCode=2_CLP_1PH_12KV_1 Length=0.00304 units=km
New Line.ND165230526$ND165230536 phases=1 Bus1=165230526.2 Bus2=165230536.2 LineCode=1/0_JCN_1PH_12KV_1 Length=0.007578 units=km
New Line.ND165230526$165230719 phases=1 Bus1=165230526.2 Bus2=165230721.2 LineCode=1/0_JCN_1PH_12KV_1 Length=0.067421 units=km
New Line.165230851$165230876 phases=1 Bus1=165230853.1 Bus2=165230878.1 LineCode=1/0_JCN_1PH_12KV_1 Length=0.161092 units=km
New Line.GS7644-1$PME7410-1 phases=3 Bus1=173971292.1.2.3 Bus2=193573647.1.2.3 LineCode=1000_JCN_3PH_12KV_3 Length=0.170635 units=km
New Line.P5743240-2$218140735 phases=1 Bus1=218140738.2 Bus2=218139886.2 LineCode=1/0_JCN_1PH_12KV_1 Length=0.002085 units=km
New Line.P5743245-1$218140575 phases=1 Bus1=218140578.1 Bus2=218140149.1 LineCode=1/0_JCN_1PH_12KV_1 Length=0.002896 units=km
New Line.218140600$218140548 phases=1 Bus1=218140602.1 Bus2=218140550.1 LineCode=1/0_JCN_1PH_12KV_1 Length=0.060283 units=km
New Line.218652925$P5745945-2 phases=1 Bus1=218652928.1 Bus2=218652268.1 LineCode=1/0_JCN_1PH_12KV_1 Length=0.001941 units=km
New Line.P5745939-2$218652700 phases=1 Bus1=218914360.2 Bus2=218652703.2 LineCode=1/0_JCN_1PH_12KV_1 Length=0.002715 units=km
New Line.P5745938-1$218652825 phases=1 Bus1=218914270.2 Bus2=218652828.2 LineCode=1/0_JCN_1PH_12KV_1 Length=0.002909 units=km
New Line.P5745940-2$218914955 phases=1 Bus1=218914441.3 Bus2=218914958.3 LineCode=1/0_JCN_1PH_12KV_1 Length=0.00252 units=km
New Line.219132253$219132228 phases=1 Bus1=219132230.1 Bus2=219132255.1 LineCode=1/0_JCN_1PH_12KV_1 Length=0.05658 units=km
New Line.PME8242-3$222083259 phases=3 Bus1=220030185.1.2.3 Bus2=222083261.1.2.3 LineCode=1/0_JCN_3PH_12KV_3 Length=0.068915 units=km
New Line.P5745943-2$218652875 phases=1 Bus1=218652132.1 Bus2=218652878.1 LineCode=1/0_JCN_1PH_12KV_1 Length=0.003031 units=km
New Line.GS8227-2$PME8242-1 phases=3 Bus1=220030212.1.2.3 Bus2=220029377.1.2.3 LineCode=1000_JCN_3PH_12KV_3 Length=0.288115 units=km
New Line.P5742691-2$PME8242-4 phases=1 Bus1=220030194.1 Bus2=220030352.1 LineCode=1/0_JCN_1PH_12KV_1 Length=0.135055 units=km
New Line.222103830$222103855 phases=1 Bus1=222103857.3 Bus2=222103832.3 LineCode=1/0_JCN_1PH_12KV_1 Length=0.097001 units=km
New Line.223220129$P5746540-2 phases=1 Bus1=223220132.1 Bus2=223219760.1 LineCode=1/0_JCN_1PH_12KV_1 Length=0.001942 units=km
New Line.P5746543-1$223220361 phases=1 Bus1=223220364.2 Bus2=223220287.2 LineCode=1/0_JCN_1PH_12KV_1 Length=0.00184 units=km
New Line.P5743246-1$223762464 phases=1 Bus1=223762037.3 Bus2=223762467.3 LineCode=1/0_JCN_1PH_12KV_1 Length=0.002616 units=km
New Line.P5745578-2$239563989 phases=1 Bus1=239563992.2 Bus2=239563919.2 LineCode=1/0_JCN_1PH_12KV_1 Length=0.000238 units=km
New Line.256648863$P5745571-2 phases=1 Bus1=256648866.3 Bus2=256648383.3 LineCode=1/0_JCN_1PH_12KV_1 Length=0.001275 units=km
New Line.256649065$P5745574-2 phases=1 Bus1=256649068.3 Bus2=256648587.3 LineCode=1/0_JCN_1PH_12KV_1 Length=0.002669 units=km
New Line.218140548$P5743238-1 phases=1 Bus1=218140551.1 Bus2=218140375.1 LineCode=1/0_JCN_1PH_12KV_1 Length=0.002985 units=km
New Line.ND28509719$242603907 phases=1 Bus1=28509719.1 Bus2=242603909.1 LineCode=2_CLP_1PH_12KV_1 Length=0.017534 units=km
New Line.94059564$P5500801-2 phases=1 Bus1=94059567.3 Bus2=28441291.3 LineCode=2_CLP_1PH_12KV_1 Length=0.001065 units=km
New Line.ND28509719$28441886 phases=1 Bus1=28509719.1 Bus2=28441888.1 LineCode=2_CLP_1PH_12KV_1 Length=0.115482 units=km
New Line.P5512755-2$28467854 phases=1 Bus1=28467857.1 Bus2=28467889.1 LineCode=2_CLP_1PH_12KV_1 Length=0.000127 units=km
New Line.98321420$98321445 phases=1 Bus1=98321422.1 Bus2=98321447.1 LineCode=2_CLP_1PH_12KV_1 Length=0.136076 units=km
New Line.165230749$ND165230536 phases=1 Bus1=165230536.2 Bus2=165230751.2 LineCode=1/0_JCN_1PH_12KV_1 Length=0.063446 units=km
New Line.ND165230536$165230776 phases=1 Bus1=165230536.2 Bus2=165230778.2 LineCode=1/0_JCN_1PH_12KV_1 Length=0.041612 units=km
New Line.PME7410-2$ND173971210 phases=3 Bus1=173971283.1.2.3 Bus2=173971210.1.2.3 LineCode=1000_JCN_3PH_12KV_3 Length=0.179775 units=km
New Line.PME7410-3$ND176365028 phases=2 Bus1=173971265.1.3 Bus2=176365028.1.3 LineCode=1/0_JCN_2PH_12KV_2 Length=0.013354 units=km
New Line.P5656970-2$176366012 phases=1 Bus1=176365681.1 Bus2=176366015.1 LineCode=1/0_JCN_1PH_12KV_1 Length=0.003565 units=km
New Line.P5507000-B$187600634 phases=3 Bus1=151793853.1.2.3 Bus2=187600637.1.2.3 LineCode=1/0_CLP_3PH_12KV_3 Length=0.005143 units=km
New Line.218652700$218652725 phases=1 Bus1=218652702.2 Bus2=218652727.2 LineCode=1/0_JCN_1PH_12KV_1 Length=0.063454 units=km
New Line.218652825$218652800 phases=1 Bus1=218652827.2 Bus2=218652802.2 LineCode=1/0_JCN_1PH_12KV_1 Length=0.063389 units=km
New Line.218914955$218914980 phases=1 Bus1=218914957.3 Bus2=218914982.3 LineCode=1/0_JCN_1PH_12KV_1 Length=0.064527 units=km
New Line.219132253$P5746406-1 phases=1 Bus1=219132256.1 Bus2=219132073.1 LineCode=1/0_JCN_1PH_12KV_1 Length=0.001802 units=km
New Line.222083259$ND222081511 phases=3 Bus1=222083262.1.2.3 Bus2=222081511.1.2.3 LineCode=1/0_JCN_3PH_12KV_3 Length=0.006833 units=km
New Line.P5743240-1$218140760 phases=1 Bus1=218139877.2 Bus2=218140763.2 LineCode=1/0_JCN_1PH_12KV_1 Length=0.00172 units=km
New Line.218652875$218652900 phases=1 Bus1=218652877.1 Bus2=218652902.1 LineCode=1/0_JCN_1PH_12KV_1 Length=0.091655 units=km
New Line.P5745945-1$218652950 phases=1 Bus1=218652259.1 Bus2=218652953.1 LineCode=1/0_JCN_1PH_12KV_1 Length=0.002167 units=km
New Line.222083284$ND222081511 phases=2 Bus1=222081511.1.3 Bus2=222083287.1.3 LineCode=1/0_JCN_2PH_12KV_2 Length=0.014274 units=km
New Line.ND222081511$222083309 phases=1 Bus1=222081511.1 Bus2=222083312.1 LineCode=1/0_JCN_1PH_12KV_1 Length=0.007516 units=km
New Line.ND222081511$222083334 phases=1 Bus1=222081511.2 Bus2=222083337.2 LineCode=1/0_JCN_1PH_12KV_1 Length=0.01478 units=km
New Line.222103830$P5746535-1 phases=1 Bus1=222103833.3 Bus2=222103207.3 LineCode=1/0_JCN_1PH_12KV_1 Length=0.001924 units=km
New Line.223762464$223762439 phases=1 Bus1=223762466.3 Bus2=223762441.3 LineCode=1/0_JCN_1PH_12KV_1 Length=0.053945 units=km
New Line.218652725$P5745930-1 phases=1 Bus1=218652728.2 Bus2=218652481.2 LineCode=1/0_JCN_1PH_12KV_1 Length=0.002232 units=km
New Line.218652800$P5745932-2 phases=1 Bus1=218652803.2 Bus2=218652626.2 LineCode=1/0_JCN_1PH_12KV_1 Length=0.003179 units=km
New Line.218914980$P5745941-2 phases=1 Bus1=218914983.3 Bus2=218914522.3 LineCode=1/0_JCN_1PH_12KV_1 Length=0.003532 units=km
New Line.ND223219651$P5746543-2 phases=1 Bus1=223220296.2 Bus2=223219651.2 LineCode=1/0_JCN_1PH_12KV_1 Length=0.003842 units=km
New Line.P5746540-1$223220156 phases=1 Bus1=223219751.1 Bus2=223220159.1 LineCode=1/0_JCN_1PH_12KV_1 Length=0.002324 units=km
New Line.P5745578-1$239564025 phases=1 Bus1=239563910.2 Bus2=239564028.2 LineCode=1/0_JCN_1PH_12KV_1 Length=0.000363 units=km
New Line.P5745571-1$256648813 phases=1 Bus1=256648374.3 Bus2=256648816.3 LineCode=1/0_JCN_1PH_12KV_1 Length=0.000119 units=km
New Line.188735485$194631196 phases=1 Bus1=194631198.1 Bus2=188735487.1 LineCode=1/0_JCN_1PH_12KV_1 Length=0.017783 units=km
New Line.194631171$194631117 phases=2 Bus1=194631173.2.3 Bus2=194631119.2.3 LineCode=1/0_JCN_2PH_12KV_2 Length=0.034613 units=km
New Line.P5746476-2$222082939 phases=1 Bus1=222082942.3 Bus2=222082558.3 LineCode=1/0_JCN_1PH_12KV_1 Length=0.000739 units=km
New Line.P5746477-2$222082880 phases=1 Bus1=222082883.3 Bus2=222082711.3 LineCode=1/0_JCN_1PH_12KV_1 Length=0.000386 units=km
New Line.P5500796-2$189455753 phases=1 Bus1=189455756.3 Bus2=28440621.3 LineCode=2_CLP_1PH_12KV_1 Length=0.000901 units=km
New Line.P5500797-2$189455728 phases=1 Bus1=189455731.3 Bus2=28440693.3 LineCode=2_CLP_1PH_12KV_1 Length=0.001332 units=km
New Line.P5500805-1$242603852 phases=1 Bus1=242603855.2 Bus2=28441548.2 LineCode=2_CLP_1PH_12KV_1 Length=0.15242 units=km
New Line.P5501057-2$28442162 phases=1 Bus1=28442165.2 Bus2=28442187.2 LineCode=2_CLP_1PH_12KV_1 Length=0.00336 units=km
New Line.165230876$P5635379-1 phases=1 Bus1=165230879.1 Bus2=165229878.1 LineCode=1/0_JCN_1PH_12KV_1 Length=0.002806 units=km
New Line.165230719$P5635447-2 phases=1 Bus1=165230722.2 Bus2=165230159.2 LineCode=1/0_JCN_1PH_12KV_1 Length=0.003772 units=km
New Line.176365096$ND176365028 phases=2 Bus1=176365028.1.3 Bus2=176365098.1.3 LineCode=1/0_JCN_2PH_12KV_2 Length=0.147195 units=km
New Line.ND176365028$176365179 phases=2 Bus1=176365028.1.3 Bus2=176365181.1.3 LineCode=1/0_JCN_2PH_12KV_2 Length=0.015346 units=km
New Line.178321681$P5655941-1 phases=1 Bus1=178321465.2 Bus2=178321684.2 LineCode=1/0_JCN_1PH_12KV_1 Length=0.005416 units=km
New Line.P5656976-2$182389437 phases=1 Bus1=176365613.2 Bus2=182389440.2 LineCode=1/0_JCN_1PH_12KV_1 Length=0.006122 units=km
New Line.PME7646-1$ND173971210 phases=3 Bus1=173971210.1.2.3 Bus2=192218031.1.2.3 LineCode=750_JCN_3PH_12KV_3 Length=0.653537 units=km
New Line.GS7568-1$GS8227-3 phases=3 Bus1=220029386.1.2.3 Bus2=178180029.1.2.3 LineCode=1000_JCN_3PH_12KV_3 Length=0.455014 units=km
New Line.218140760$218140785 phases=1 Bus1=218140762.2 Bus2=218140787.2 LineCode=1/0_JCN_1PH_12KV_1 Length=0.053098 units=km