! OpenDSS script generated from multiconductor network
Clear

New Circuit.mc_network basekv=12.0 pu=1.000000 angle=0.00 frequency=60.0 phases=3 Mvasc3=143993 Mvasc1=47997.6
~ bus1=-8888882190673.1.2.3

! Line codes
New LineCode.1/0_AL_1PH_12KV_1 nphases=1 units=km Rmatrix=[ 0.075419 ] Xmatrix=[ 0.023052 ] Cmatrix=[ 0 ]
New LineCode.1/0_CLP_1PH_12KV_1 nphases=1 units=km Rmatrix=[ 0.046588 ] Xmatrix=[ 0.014239 ] Cmatrix=[ 0 ]
New LineCode.2_CLP_1PH_12KV_1 nphases=1 units=km Rmatrix=[ 0.0011 ] Xmatrix=[ 0.000232 ] Cmatrix=[ 0 ]
New LineCode.1/0_CLP_3PH_12KV_3 nphases=3 units=km Rmatrix=[ 0.004036 | 0 0.004036 | 0 0 0.004036 ] Xmatrix=[ 0.001234 | 0 0.001234 | 0 0 0.001234 ] Cmatrix=[ 0 | 0 0 | 0 0 0 ]
New LineCode.2_CLP_3PH_12KV_3 nphases=3 units=km Rmatrix=[ 0.028288 | 0 0.028288 | 0 0 0.028288 ] Xmatrix=[ 0.005963 | 0 0.005963 | 0 0 0.005963 ] Cmatrix=[ 0 | 0 0 | 0 0 0 ]
New LineCode.750_CLP_3PH_12KV_3 nphases=3 units=km Rmatrix=[ 0.015656 | 0 0.015656 | 0 0 0.015656 ] Xmatrix=[ 0.019227 | 0 0.019227 | 0 0 0.019227 ] Cmatrix=[ 0 | 0 0 | 0 0 0 ]
New LineCode.1000_JCN_3PH_12KV_3 nphases=3 units=km Rmatrix=[ 0.019235 | 0 0.019235 | 0 0 0.019235 ] Xmatrix=[ 0.029115 | 0 0.029115 | 0 0 0.029115 ] Cmatrix=[ 0 | 0 0 | 0 0 0 ]
New LineCode.350_JCN_3PH_12KV_3 nphases=3 units=km Rmatrix=[ 0.004212 | 0 0.004212 | 0 0 0.004212 ] Xmatrix=[ 0.0032 | 0 0.0032 | 0 0 0.0032 ] Cmatrix=[ 0 | 0 0 | 0 0 0 ]
New LineCode.350_CLP_3PH_12KV_3 nphases=3 units=km Rmatrix=[ 0.057412 | 0 0.057412 | 0 0 0.057412 ] Xmatrix=[ 0.043621 | 0 0.043621 | 0 0 0.043621 ] Cmatrix=[ 0 | 0 0 | 0 0 0 ]
New LineCode.1/0_JCN_3PH_12KV_3 nphases=3 units=km Rmatrix=[ 0.027183 | 0 0.027183 | 0 0 0.027183 ] Xmatrix=[ 0.008308 | 0 0.008308 | 0 0 0.008308 ] Cmatrix=[ 0 | 0 0 | 0 0 0 ]
New LineCode.1/0_ACSR_3PH_12KV_3 nphases=3 units=km Rmatrix=[ 0.019811 | 0 0.019811 | 0 0 0.019811 ] Xmatrix=[ 0.015774 | 0 0.015774 | 0 0 0.015774 ] Cmatrix=[ 0 | 0 0 | 0 0 0 ]
New LineCode.1000_CLP_3PH_12KV_3 nphases=3 units=km Rmatrix=[ 0.000211 | 0 0.000211 | 0 0 0.000211 ] Xmatrix=[ 0.000319 | 0 0.000319 | 0 0 0.000319 ] Cmatrix=[ 0 | 0 0 | 0 0 0 ]
New LineCode.350_AL_3PH_12KV_3 nphases=3 units=km Rmatrix=[ 0.000636 | 0 0.000636 | 0 0 0.000636 ] Xmatrix=[ 0.000483 | 0 0.000483 | 0 0 0.000483 ] Cmatrix=[ 0 | 0 0 | 0 0 0 ]
New LineCode.2_ACSR_3PH_2_ACSR_N_12KV_4 nphases=4 units=km Rmatrix=[ 0.006756 | 0 0.006756 | 0 0 0.006756 | 0 0 0 0.006756 ] Xmatrix=[ 0.003273 | 0 0.003273 | 0 0 0.003273 | 0 0 0 0.003273 ] Cmatrix=[ 0 | 0 0 | 0 0 0 | 0 0 0 0 ]
New LineCode.1/0_AL_3PH_12KV_3 nphases=3 units=km Rmatrix=[ 0.021077 | 0 0.021077 | 0 0 0.021077 ] Xmatrix=[ 0.006442 | 0 0.006442 | 0 0 0.006442 ] Cmatrix=[ 0 | 0 0 | 0 0 0 ]
New LineCode.2_CU_3PH_12KV_3 nphases=3 units=km Rmatrix=[ 1e-05 | 0 1e-05 | 0 0 1e-05 ] Xmatrix=[ 1e-05 | 0 1e-05 | 0 0 1e-05 ] Cmatrix=[ 0 | 0 0 | 0 0 0 ]
New LineCode.4/0_AL_3PH_12KV_3 nphases=3 units=km Rmatrix=[ 1e-05 | 0 1e-05 | 0 0 1e-05 ] Xmatrix=[ 1e-05 | 0 1e-05 | 0 0 1e-05 ] Cmatrix=[ 0 | 0 0 | 0 0 0 ]
New LineCode.6_CU_3PH_12KV_3 nphases=3 units=km Rmatrix=[ 0.172571 | 0 0.172571 | 0 0 0.172571 ] Xmatrix=[ 0.061169 | 0 0.061169 | 0 0 0.061169 ] Cmatrix=[ 0 | 0 0 | 0 0 0 ]
New LineCode.336_ACSR_3PH_12KV_3 nphases=3 units=km Rmatrix=[ 0.078609 | 0 0.078609 | 0 0 0.078609 ] Xmatrix=[ 0.176035 | 0 0.176035 | 0 0 0.176035 ] Cmatrix=[ 0 | 0 0 | 0 0 0 ]
New LineCode.4_ACSR_3PH_12KV_3 nphases=3 units=km Rmatrix=[ 0.060412 | 0 0.060412 | 0 0 0.060412 ] Xmatrix=[ 0.022168 | 0 0.022168 | 0 0 0.022168 ] Cmatrix=[ 0 | 0 0 | 0 0 0 ]
New LineCode.4_ACSR_2PH_12KV_2 nphases=2 units=km Rmatrix=[ 0.025256 | 0 0.025256 ] Xmatrix=[ 0.009267 | 0 0.009267 ] Cmatrix=[ 0 | 0 0 ]
New LineCode.4_CU_3PH_12KV_3 nphases=3 units=km Rmatrix=[ 0.050249 | 0 0.050249 | 0 0 0.050249 ] Xmatrix=[ 0.027386 | 0 0.027386 | 0 0 0.027386 ] Cmatrix=[ 0 | 0 0 | 0 0 0 ]
New LineCode.2/0_CU_3PH_12KV_3 nphases=3 units=km Rmatrix=[ 0.061787 | 0 0.061787 | 0 0 0.061787 ] Xmatrix=[ 0.095296 | 0 0.095296 | 0 0 0.095296 ] Cmatrix=[ 0 | 0 0 | 0 0 0 ]
New LineCode.6_CU_2PH_12KV_2 nphases=2 units=km Rmatrix=[ 0.11535 | 0 0.11535 ] Xmatrix=[ 0.040887 | 0 0.040887 ] Cmatrix=[ 0 | 0 0 ]
New LineCode.4/0_ACSR_3PH_12KV_3 nphases=3 units=km Rmatrix=[ 0.001989 | 0 0.001989 | 0 0 0.001989 ] Xmatrix=[ 0.002811 | 0 0.002811 | 0 0 0.002811 ] Cmatrix=[ 0 | 0 0 | 0 0 0 ]
New LineCode.1/0_ACSR_3PH_1/0_ACSR_N_12KV_4 nphases=4 units=km Rmatrix=[ 0.090778 | 0 0.090778 | 0 0 0.090778 | 0 0 0 0.090778 ] Xmatrix=[ 0.065604 | 0 0.065604 | 0 0 0.065604 | 0 0 0 0.065604 ] Cmatrix=[ 0 | 0 0 | 0 0 0 | 0 0 0 0 ]
New LineCode.1/0_ACSR_2PH_1/0_ACSR_N_12KV_3_N nphases=3 units=km Rmatrix=[ 0.005536 | 0 0.005536 | 0 0 0.005536 ] Xmatrix=[ 0.004001 | 0 0.004001 | 0 0 0.004001 ] Cmatrix=[ 0 | 0 0 | 0 0 0 ]
New LineCode.336_ACSR_3PH_336_ACSR_N_12KV_4 nphases=4 units=km Rmatrix=[ 0.000985 | 0 0.000985 | 0 0 0.000985 | 0 0 0 0.000985 ] Xmatrix=[ 0.001964 | 0 0.001964 | 0 0 0.001964 | 0 0 0 0.001964 ] Cmatrix=[ 0 | 0 0 | 0 0 0 | 0 0 0 0 ]
New LineCode.1/0_ACSR_2PH_12KV_2 nphases=2 units=km Rmatrix=[ 0.05616 | 0 0.05616 ] Xmatrix=[ 0.044715 | 0 0.044715 ] Cmatrix=[ 0 | 0 0 ]
New LineCode.954_ACSR_3PH_954_ACSR_N_12KV_4 nphases=4 units=km Rmatrix=[ 1e-05 | 0 1e-05 | 0 0 1e-05 | 0 0 0 1e-05 ] Xmatrix=[ 1e-05 | 0 1e-05 | 0 0 1e-05 | 0 0 0 1e-05 ] Cmatrix=[ 0 | 0 0 | 0 0 0 | 0 0 0 0 ]
New LineCode.1/0_ATW_3PH_12KV_3 nphases=3 units=km Rmatrix=[ 1e-05 | 0 1e-05 | 0 0 1e-05 ] Xmatrix=[ 1e-05 | 0 1e-05 | 0 0 1e-05 ] Cmatrix=[ 0 | 0 0 | 0 0 0 ]

! Lines
New Line.188600789$FC3851-1 phases=1 Bus1=188600792.1 Bus2=14870282.1 LineCode=1/0_AL_1PH_12KV_1 Length=0.00193 units=km
New Line.187934110$FC3853-1 phases=1 Bus1=187934113.1 Bus2=14870479.1 LineCode=1/0_AL_1PH_12KV_1 Length=0.005738 units=km
New Line.B5156053-1$ND14905709 phases=1 Bus1=14858940.3 Bus2=14905709.3 LineCode=1/0_CLP_1PH_12KV_1 Length=0.115554 units=km
New Line.ND158388778$182339793 phases=1 Bus1=182339795.3 Bus2=158388778.3 LineCode=1/0_CLP_1PH_12KV_1 Length=0.108121 units=km
New Line.ND83356715$83356871 phases=1 Bus1=83356715.2 Bus2=174100801.2 LineCode=2_CLP_1PH_12KV_1 Length=0.150248 units=km
New Line.203505857$P5443509-1 phases=1 Bus1=43966079.2 Bus2=203505860.2 LineCode=2_CLP_1PH_12KV_1 Length=0.00148 units=km
New Line.188600858$B5156047-2 phases=1 Bus1=188600861.3 Bus2=43964434.3 LineCode=1/0_CLP_1PH_12KV_1 Length=0.00117 units=km
New Line.PME2695-1$ND83355929 phases=1 Bus1=83355736.1 Bus2=83355929.1 LineCode=2_CLP_1PH_12KV_1 Length=0.112822 units=km
New Line.83356839$PME2695-3 phases=1 Bus1=83355727.3 Bus2=83356841.3 LineCode=2_CLP_1PH_12KV_1 Length=0.252299 units=km
New Line.ND83356715$83357010 phases=1 Bus1=83356715.2 Bus2=83357012.2 LineCode=2_CLP_1PH_12KV_1 Length=0.102882 units=km
New Line.B5156054-2$ND14905709 phases=1 Bus1=14905709.3 Bus2=14858802.3 LineCode=1/0_CLP_1PH_12KV_1 Length=0.001922 units=km
New Line.ND14905709$B5156268-1 phases=1 Bus1=14905709.3 Bus2=14861504.3 LineCode=1/0_CLP_1PH_12KV_1 Length=0.076943 units=km
New Line.187934039$FC2019-1 phases=3 Bus1=187934042.1.2.3 Bus2=14871234.1.2.3 LineCode=1/0_CLP_3PH_12KV_3 Length=0.005703 units=km
New Line.14887074$P5475850-1 phases=3 Bus1=14887077.1.2.3 Bus2=14873913.1.2.3 LineCode=2_CLP_3PH_12KV_3 Length=0.003453 units=km
New Line.ND83355929$83357201 phases=1 Bus1=83355929.1 Bus2=174100847.1 LineCode=2_CLP_1PH_12KV_1 Length=0.152027 units=km
New Line.B5180191-1$B5180190-2 phases=1 Bus1=43964497.3 Bus2=43964290.3 LineCode=1/0_CLP_1PH_12KV_1 Length=0.116432 units=km
New Line.P5411959-1$P5427604-1 phases=1 Bus1=43965448.1 Bus2=43965376.1 LineCode=2_CLP_1PH_12KV_1 Length=0.241168 units=km
New Line.P5439840-1$P5439841-2 phases=1 Bus1=43993325.2 Bus2=43993262.2 LineCode=2_CLP_1PH_12KV_1 Length=0.08372 units=km
New Line.ND158388778$P5467856-1 phases=1 Bus1=158388778.3 Bus2=43993623.3 LineCode=1/0_CLP_1PH_12KV_1 Length=0.110326 units=km
New Line.ND158388778$P5467855-2 phases=1 Bus1=158388778.3 Bus2=43993704.3 LineCode=1/0_CLP_1PH_12KV_1 Length=0.007159 units=km
New Line.ND83355929$83357151 phases=1 Bus1=83355929.1 Bus2=83357153.1 LineCode=2_CLP_1PH_12KV_1 Length=0.087544 units=km
New Line.ND166797973$GS3351-3 phases=3 Bus1=166797973.1.2.3 Bus2=246613751.1.2.3 LineCode=750_CLP_3PH_12KV_3 Length=0.426317 units=km
New Line.ND246613885$GS3351-2 phases=3 Bus1=246613742.1.2.3 Bus2=246613885.1.2.3 LineCode=2_CLP_3PH_12KV_3 Length=0.083441 units=km
New Line.GS3353-4$GS3351-1 phases=3 Bus1=246613733.1.2.3 Bus2=43992304.1.2.3 LineCode=1000_JCN_3PH_12KV_3 Length=0.686711 units=km
New Line.4297097E$ND246613885 phases=3 Bus1=246613885.1.2.3 Bus2=43992642.1.2.3 LineCode=2_CLP_3PH_12KV_3 Length=0.198598 units=km
New Line.187934098$FC3853-1 phases=1 Bus1=14870480.1 Bus2=187934101.1 LineCode=1/0_AL_1PH_12KV_1 Length=0.001924 units=km
New Line.188600801$FC3851-1 phases=1 Bus1=14870283.1 Bus2=188600804.1 LineCode=1/0_AL_1PH_12KV_1 Length=0.002693 units=km
New Line.P5443510-2$203505857 phases=1 Bus1=203505859.2 Bus2=43966160.2 LineCode=2_CLP_1PH_12KV_1 Length=0.157146 units=km
New Line.P5548361-2$83357010 phases=1 Bus1=83357013.2 Bus2=83356393.2 LineCode=2_CLP_1PH_12KV_1 Length=0.001201 units=km
New Line.P5548358-1$83356871 phases=1 Bus1=174100802.2 Bus2=83356464.2 LineCode=2_CLP_1PH_12KV_1 Length=0.002987 units=km
New Line.83356839$P5548356-1 phases=1 Bus1=83356842.3 Bus2=83356741.3 LineCode=2_CLP_1PH_12KV_1 Length=0.000304 units=km
New Line.187934051$FC2019-1 phases=3 Bus1=14871235.1.2.3 Bus2=187934054.1.2.3 LineCode=1/0_CLP_3PH_12KV_3 Length=0.001518 units=km
New Line.188600846$B5156047-1 phases=1 Bus1=43964425.3 Bus2=188600849.3 LineCode=1/0_CLP_1PH_12KV_1 Length=0.001171 units=km
New Line.83357201$P5552466-1 phases=1 Bus1=174100848.1 Bus2=83356073.1 LineCode=2_CLP_1PH_12KV_1 Length=0.008134 units=km
New Line.83357151$P5552464-1 phases=1 Bus1=83357154.1 Bus2=83356231.1 LineCode=2_CLP_1PH_12KV_1 Length=0.00135 units=km
New Line.ND43995197$GS3353-3 phases=3 Bus1=43992296.1.2.3 Bus2=43995197.1.2.3 LineCode=350_JCN_3PH_12KV_3 Length=0.086536 units=km
New Line.ND43995197$ND102230210 phases=3 Bus1=43995197.1.2.3 Bus2=102230210.1.2.3 LineCode=350_JCN_3PH_12KV_3 Length=0.059243 units=km
New Line.ND43995197$P5169913-A phases=3 Bus1=43995197.1.2.3 Bus2=152755442.1.2.3 LineCode=2_CLP_3PH_12KV_3 Length=0.059399 units=km
New Line.B5156055-2$B5156054-1 phases=1 Bus1=14858793.3 Bus2=14858874.3 LineCode=1/0_CLP_1PH_12KV_1 Length=0.131193 units=km
New Line.P5463852-1$188600801 phases=1 Bus1=188600803.1 Bus2=14870332.1 LineCode=1/0_AL_1PH_12KV_1 Length=0.053923 units=km
New Line.ND14906599$187934098 phases=1 Bus1=187934100.1 Bus2=14906599.1 LineCode=1/0_AL_1PH_12KV_1 Length=0.027517 units=km
New Line.P5427604-2$P5427603-2 phases=1 Bus1=43965385.1 Bus2=43965313.1 LineCode=2_CLP_1PH_12KV_1 Length=0.171256 units=km
New Line.P5439841-1$P5439842-2 phases=1 Bus1=43993253.2 Bus2=43993190.2 LineCode=2_CLP_1PH_12KV_1 Length=0.115644 units=km
New Line.P5467856-2$P5467857-2 phases=1 Bus1=43993632.3 Bus2=43993560.3 LineCode=1/0_CLP_1PH_12KV_1 Length=0.086844 units=km
New Line.P5467854-2$P5467855-1 phases=1 Bus1=43993695.3 Bus2=43993776.3 LineCode=1/0_CLP_1PH_12KV_1 Length=0.102458 units=km
New Line.ND102230210$P5585478-A phases=3 Bus1=102230210.1.2.3 Bus2=153147758.1.2.3 LineCode=2_CLP_3PH_12KV_3 Length=0.150912 units=km
New Line.GS3353-1$4012420E phases=3 Bus1=43992288.1.2.3 Bus2=43992230.1.2.3 LineCode=350_CLP_3PH_12KV_3 Length=0.03938 units=km
New Line.ND102230210$4297092E phases=3 Bus1=102230210.1.2.3 Bus2=43992472.1.2.3 LineCode=350_JCN_3PH_12KV_3 Length=0.041164 units=km
New Line.P5463859-1$ND14906599 phases=1 Bus1=14906599.1 Bus2=14870529.1 LineCode=1/0_AL_1PH_12KV_1 Length=0.115439 units=km
New Line.P5463857-2$ND14906599 phases=1 Bus1=14906599.1 Bus2=14870757.1 LineCode=1/0_AL_1PH_12KV_1 Length=0.063962 units=km
New Line.ND14904993$187934051 phases=3 Bus1=187934053.1.2.3 Bus2=14904993.1.2.3 LineCode=1/0_CLP_3PH_12KV_3 Length=0.009865 units=km
New Line.P5169913-B$P5467692-A phases=3 Bus1=152755425.1.2.3 Bus2=152755541.1.2.3 LineCode=2_CLP_3PH_12KV_3 Length=0.106268 units=km
New Line.P5585478-B$213158558 phases=3 Bus1=153147776.1.2.3 Bus2=213158560.1.2.3 LineCode=2_CLP_3PH_12KV_3 Length=0.045945 units=km
New Line.B5156048-2$188600846 phases=1 Bus1=188600848.3 Bus2=43964218.3 LineCode=1/0_CLP_1PH_12KV_1 Length=0.171102 units=km
New Line.P5548358-2$83356910 phases=1 Bus1=83356473.2 Bus2=83356913.2 LineCode=2_CLP_1PH_12KV_1 Length=0.002661 units=km
New Line.P5548361-1$83357065 phases=1 Bus1=83356384.2 Bus2=83357068.2 LineCode=2_CLP_1PH_12KV_1 Length=0.001324 units=km
New Line.ND14904993$P5472018-1 phases=1 Bus1=14904993.1 Bus2=14871356.1 LineCode=1/0_CLP_1PH_12KV_1 Length=0.131228 units=km
New Line.ND14904993$ND14905431 phases=1 Bus1=14904993.1 Bus2=14905431.1 LineCode=1/0_CLP_1PH_12KV_1 Length=0.112338 units=km
New Line.P5552466-2$83357226 phases=1 Bus1=83356082.1 Bus2=174100830.1 LineCode=2_CLP_1PH_12KV_1 Length=0.005558 units=km
New Line.213158558$P5619067-1 phases=3 Bus1=213158561.1.2.3 Bus2=102230235.1.2.3 LineCode=2_CLP_3PH_12KV_3 Length=0.0054 units=km
New Line.B5309962-1$FD10425 phases=1 Bus1=43992083.3 Bus2=43962649.3 LineCode=1/0_AL_1PH_12KV_1 Length=0.133713 units=km
New Line.FD10426$ND43996077 phases=1 Bus1=43992099.2 Bus2=43996077.2 LineCode=1/0_AL_1PH_12KV_1 Length=0.106373 units=km
New Line.B5334653-2$ND43996077 phases=1 Bus1=43996077.2 Bus2=43962802.2 LineCode=1/0_AL_1PH_12KV_1 Length=0.064011 units=km
New Line.P5427689-2$FD10427 phases=1 Bus1=43992128.3 Bus2=43962874.3 LineCode=1/0_AL_1PH_12KV_1 Length=0.058278 units=km
New Line.B5334652-1$ND43996077 phases=1 Bus1=43996077.2 Bus2=43965932.2 LineCode=1/0_AL_1PH_12KV_1 Length=0.015985 units=km
New Line.GS0139-1$4451865E phases=3 Bus1=79627945.1.2.3 Bus2=43994200.1.2.3 LineCode=750_CLP_3PH_12KV_3 Length=0.073191 units=km
New Line.B5309962-2$B5334679-1 phases=1 Bus1=43962658.3 Bus2=43962577.3 LineCode=1/0_AL_1PH_12KV_1 Length=0.084763 units=km
New Line.FD10428$ND43995995 phases=1 Bus1=43992067.2 Bus2=43995995.2 LineCode=1/0_AL_1PH_12KV_1 Length=0.031086 units=km
New Line.ND14904993$196768850 phases=1 Bus1=14904993.1 Bus2=196768852.1 LineCode=1/0_CLP_1PH_12KV_1 Length=0.042211 units=km
New Line.4700049E$P5716982-1 phases=3 Bus1=200905338.1.2.3 Bus2=200905408.1.2.3 LineCode=1/0_JCN_3PH_12KV_3 Length=0.137991 units=km
New Line.4518879E$PS5844 phases=3 Bus1=17868027.1.2.3 Bus2=223104819.1.2.3 LineCode=1/0_ACSR_3PH_12KV_3 Length=0.072001 units=km
New Line.P5552464-2$83357176 phases=1 Bus1=83356240.1 Bus2=83357179.1 LineCode=2_CLP_1PH_12KV_1 Length=0.00092 units=km
New Line.ND43995995$188386577 phases=1 Bus1=43995995.2 Bus2=188386579.2 LineCode=1/0_AL_1PH_12KV_1 Length=0.106049 units=km
New Line.B5334652-2$B5334654-1 phases=1 Bus1=43965941.2 Bus2=43962721.2 LineCode=1/0_AL_1PH_12KV_1 Length=0.066223 units=km
New Line.P5427690-2$P5427689-1 phases=1 Bus1=43962865.3 Bus2=43962946.3 LineCode=1/0_AL_1PH_12KV_1 Length=0.159201 units=km
New Line.P5427686-1$ND43995995 phases=1 Bus1=43995995.2 Bus2=43963369.2 LineCode=1/0_AL_1PH_12KV_1 Length=0.171401 units=km
New Line.ND165592233$GS0139-2 phases=3 Bus1=43994192.1.2.3 Bus2=165592233.1.2.3 LineCode=1000_CLP_3PH_12KV_3 Length=0.053713 units=km
New Line.ND14905843$P5463852-2 phases=1 Bus1=14870341.1 Bus2=14905843.1 LineCode=1/0_AL_1PH_12KV_1 Length=0.095714 units=km
New Line.ND157796488$ND14905431 phases=1 Bus1=14905431.1 Bus2=157796488.1 LineCode=1/0_CLP_1PH_12KV_1 Length=0.000249 units=km
New Line.P5427603-1$P5427521-2 phases=1 Bus1=43965304.1 Bus2=43965241.1 LineCode=2_CLP_1PH_12KV_1 Length=0.059239 units=km
New Line.P5467854-1$P5467853-2 phases=1 Bus1=43993767.3 Bus2=43993848.3 LineCode=1/0_CLP_1PH_12KV_1 Length=0.140904 units=km
New Line.83356910$83356935 phases=1 Bus1=83356912.2 Bus2=83356937.2 LineCode=2_CLP_1PH_12KV_1 Length=0.147917 units=km
New Line.83357065$83357101 phases=1 Bus1=83357067.2 Bus2=83357103.2 LineCode=2_CLP_1PH_12KV_1 Length=0.193698 units=km
New Line.ND165592251$ND165592233 phases=3 Bus1=165592233.1.2.3 Bus2=165592251.1.2.3 LineCode=1000_CLP_3PH_12KV_3 Length=0.002499 units=km
New Line.188386577$P5427628-1 phases=1 Bus1=188386580.2 Bus2=43963081.2 LineCode=1/0_AL_1PH_12KV_1 Length=0.000875 units=km
New Line.B5178204-1$FD10429 phases=1 Bus1=43966261.3 Bus2=43963729.3 LineCode=1/0_AL_1PH_12KV_1 Length=0.189395 units=km
New Line.B5978203-1$FD10430 phases=1 Bus1=43966245.2 Bus2=43963873.2 LineCode=1/0_AL_1PH_12KV_1 Length=0.26372 units=km
New Line.ND166039030$ND165592251 phases=3 Bus1=165592251.1.2.3 Bus2=166039030.1.2.3 LineCode=350_AL_3PH_12KV_3 Length=0.0714 units=km
New Line.ND165592251$4303336E phases=3 Bus1=165592251.1.2.3 Bus2=23583337.1.2.3 LineCode=1000_CLP_3PH_12KV_3 Length=0.090508 units=km
New Line.P5463860-2$P5463859-2 phases=1 Bus1=14870538.1 Bus2=14870610.1 LineCode=1/0_AL_1PH_12KV_1 Length=0.191176 units=km
New Line.196768850$P5472020-2 phases=1 Bus1=196768853.1 Bus2=14871293.1 LineCode=1/0_CLP_1PH_12KV_1 Length=0.003036 units=km
New Line.P5472026-2$ND157796488 phases=1 Bus1=157796488.1 Bus2=14871437.1 LineCode=1/0_CLP_1PH_12KV_1 Length=0.101648 units=km
New Line.ND14905843$ND14906463 phases=1 Bus1=14905843.1 Bus2=14906463.1 LineCode=1/0_AL_1PH_12KV_1 Length=0.083947 units=km
New Line.P5463857-1$188600895 phases=1 Bus1=14870748.1 Bus2=188600897.1 LineCode=1/0_AL_1PH_12KV_1 Length=0.099693 units=km
New Line.ND157796488$196768992 phases=1 Bus1=157796488.1 Bus2=196768994.1 LineCode=1/0_CLP_1PH_12KV_1 Length=0.112687 units=km
New Line.ND14905843$213158620 phases=1 Bus1=14905843.1 Bus2=213158622.1 LineCode=1/0_AL_1PH_12KV_1 Length=0.069208 units=km
New Line.P5427686-2$P5427687-1 phases=1 Bus1=43963378.2 Bus2=43963297.2 LineCode=1/0_AL_1PH_12KV_1 Length=0.065282 units=km
New Line.P5441508-1$P5427690-1 phases=1 Bus1=43962937.3 Bus2=43993469.3 LineCode=1/0_AL_1PH_12KV_1 Length=0.221995 units=km
New Line.GS0139-4$V5492591 phases=3 Bus1=43994216.1.2.3 Bus2=43995026.1.2.3 LineCode=750_CLP_3PH_12KV_3 Length=0.011768 units=km
New Line.ND166039030$4303337EPH phases=3 Bus1=166039030.1.2.3 Bus2=23583324.1.2.3 LineCode=350_AL_3PH_12KV_3 Length=0.002854 units=km
New Line.V5492591$ND44017796 phases=3 Bus1=43995026.1.2.3 Bus2=44017796.1.2.3 LineCode=750_CLP_3PH_12KV_3 Length=0.130832 units=km
New Line.PS5844$1349220EP1 phases=3 Bus1=223104820.1.2.3 Bus2=223104854.1.2.3 LineCode=1/0_ACSR_3PH_12KV_3 Length=0.01045 units=km
New Line.83357176$83357126 phases=1 Bus1=83357178.1 Bus2=83357128.1 LineCode=2_CLP_1PH_12KV_1 Length=0.193369 units=km
New Line.83357226$83357251 phases=1 Bus1=174100829.1 Bus2=83357253.1 LineCode=2_CLP_1PH_12KV_1 Length=0.189397 units=km
New Line.J987A-4P$1018497EPH phases=3 Bus1=43992057.1.2.3 Bus2=166362648.1.2.3 LineCode=1/0_JCN_3PH_12KV_3 Length=0.005981 units=km
New Line.ND44017796$173866426 phases=1 Bus1=44017796.2 Bus2=173866428.2 LineCode=2_CLP_1PH_12KV_1 Length=0.130111 units=km
New Line.188386589$P5427628-2 phases=1 Bus1=43963090.2 Bus2=188386592.2 LineCode=1/0_AL_1PH_12KV_1 Length=0.001583 units=km
New Line.B5178464-1$B5978203-2 phases=1 Bus1=43963882.2 Bus2=43964017.2 LineCode=1/0_AL_1PH_12KV_1 Length=0.091058 units=km
New Line.B5178204-2$ND43995253 phases=1 Bus1=43963738.3 Bus2=43995253.3 LineCode=1/0_AL_1PH_12KV_1 Length=0.019749 units=km
New Line.ND44017796$ND43995283 phases=3 Bus1=44017796.1.2.3 Bus2=43995283.1.2.3 LineCode=750_CLP_3PH_12KV_3 Length=0.475535 units=km
New Line.ND43995283$165378320 phases=1 Bus1=43995283.1 Bus2=165378322.1 LineCode=2_CLP_1PH_12KV_1 Length=0.018247 units=km
New Line.P5427687-2$P5427688-1 phases=1 Bus1=43963306.2 Bus2=43963225.2 LineCode=1/0_AL_1PH_12KV_1 Length=0.148758 units=km
New Line.ND14906463$196768889 phases=1 Bus1=14906463.1 Bus2=196768891.1 LineCode=1/0_AL_1PH_12KV_1 Length=0.115642 units=km
New Line.ND14906463$196769044 phases=1 Bus1=14906463.1 Bus2=196769046.1 LineCode=1/0_AL_1PH_12KV_1 Length=0.046695 units=km
New Line.B5178202-1$ND43995253 phases=1 Bus1=43995253.3 Bus2=43963513.3 LineCode=1/0_AL_1PH_12KV_1 Length=0.150304 units=km
New Line.B5178201-1$ND43995253 phases=1 Bus1=43995253.3 Bus2=43963657.3 LineCode=1/0_AL_1PH_12KV_1 Length=0.233862 units=km
New Line.ND43995283$ND99685543 phases=3 Bus1=43995283.1.2.3 Bus2=99685543.1.2.3 LineCode=750_CLP_3PH_12KV_3 Length=0.030189 units=km
New Line.ND99685543$RCS2568-1 phases=3 Bus1=99685543.1.2.3 Bus2=14885985.1.2.3 LineCode=750_CLP_3PH_12KV_3 Length=0.006182 units=km
New Line.P5427629-1$188386589 phases=1 Bus1=188386591.2 Bus2=43963153.2 LineCode=1/0_AL_1PH_12KV_1 Length=0.100117 units=km
New Line.173866426$FC2543-1 phases=1 Bus1=173866429.2 Bus2=43994438.2 LineCode=2_CLP_1PH_12KV_1 Length=0.004032 units=km
New Line.V5492588$ND99685543 phases=1 Bus1=99685543.1 Bus2=99685528.1 LineCode=2_CLP_1PH_12KV_1 Length=0.002952 units=km
New Line.B5178465-1$B5178464-2 phases=1 Bus1=43964026.2 Bus2=43965860.2 LineCode=1/0_AL_1PH_12KV_1 Length=0.053237 units=km
New Line.FC2542-1$165378320 phases=1 Bus1=165378323.1 Bus2=43994388.1 LineCode=2_CLP_1PH_12KV_1 Length=0.004913 units=km
New Line.FC2543-1$173866454 phases=1 Bus1=43994439.2 Bus2=173866457.2 LineCode=2_CLP_1PH_12KV_1 Length=0.098509 units=km
New Line.FD10816$182339805 phases=1 Bus1=43993538.3 Bus2=182339807.3 LineCode=1/0_CLP_1PH_12KV_1 Length=0.183637 units=km
New Line.J987A-3P$213158528 phases=3 Bus1=166362640.1.2.3 Bus2=213158530.1.2.3 LineCode=1/0_JCN_3PH_12KV_3 Length=0.117815 units=km
New Line.B5178202-2$B5338899-2 phases=1 Bus1=43963522.3 Bus2=43963450.3 LineCode=1/0_AL_1PH_12KV_1 Length=0.140232 units=km
New Line.B5178201-2$B5338900-1 phases=1 Bus1=43963666.3 Bus2=43963585.3 LineCode=1/0_AL_1PH_12KV_1 Length=0.124239 units=km
New Line.83357101$P5552462-2 phases=1 Bus1=83357104.2 Bus2=83356320.2 LineCode=2_CLP_1PH_12KV_1 Length=0.00098 units=km
New Line.83356935$P5548359-1 phases=1 Bus1=83356938.2 Bus2=83356544.2 LineCode=2_CLP_1PH_12KV_1 Length=0.001048 units=km
New Line.213158620$P5585901-1 phases=1 Bus1=213158623.1 Bus2=14870210.1 LineCode=1/0_AL_1PH_12KV_1 Length=0.001213 units=km
New Line.188600895$P5463858-2 phases=1 Bus1=188600898.1 Bus2=14870685.1 LineCode=1/0_AL_1PH_12KV_1 Length=0.0007 units=km
New Line.196768992$P5472027-2 phases=1 Bus1=196768995.1 Bus2=14871581.1 LineCode=1/0_CLP_1PH_12KV_1 Length=0.001093 units=km
New Line.165378367$FC2542-1 phases=1 Bus1=43994389.1 Bus2=165378370.1 LineCode=2_CLP_1PH_12KV_1 Length=0.003943 units=km
New Line.J987A-2P$179119214 phases=3 Bus1=166362656.1.2.3 Bus2=179119216.1.2.3 LineCode=1/0_JCN_3PH_12KV_3 Length=0.324529 units=km
New Line.P5427629-2$P5427630-1 phases=1 Bus1=43963162.2 Bus2=43963009.2 LineCode=1/0_AL_1PH_12KV_1 Length=0.088206 units=km
New Line.FD10432$ND43995191 phases=1 Bus1=43992041.3 Bus2=43995191.3 LineCode=1/0_CLP_1PH_12KV_1 Length=0.024137 units=km
New Line.182339805$ND182339891 phases=1 Bus1=182339808.3 Bus2=182339891.3 LineCode=1/0_CLP_1PH_12KV_1 Length=0.001226 units=km
New Line.J987A-1P$188600754 phases=3 Bus1=166362632.1.2.3 Bus2=188600756.1.2.3 LineCode=1/0_JCN_3PH_12KV_3 Length=0.011152 units=km
New Line.P5427521-1$196648595 phases=1 Bus1=43965232.1 Bus2=196648597.1 LineCode=2_CLP_1PH_12KV_1 Length=0.190633 units=km
New Line.1349220EP1$223104931 phases=3 Bus1=223104859.1.2.3 Bus2=223104933.1.2.3 LineCode=1/0_JCN_3PH_12KV_3 Length=0.152758 units=km
New Line.83357251$P5552467-1 phases=1 Bus1=83357254.1 Bus2=83355995.1 LineCode=2_CLP_1PH_12KV_1 Length=0.000432 units=km
New Line.83357126$P5552465-1 phases=1 Bus1=83357129.1 Bus2=83356153.1 LineCode=2_CLP_1PH_12KV_1 Length=0.001326 units=km
New Line.P5463860-1$P5463861-2 phases=1 Bus1=14870601.1 Bus2=14870416.1 LineCode=1/0_AL_1PH_12KV_1 Length=0.143258 units=km
New Line.196768889$P5472021-2 phases=1 Bus1=196768892.1 Bus2=14870955.1 LineCode=1/0_AL_1PH_12KV_1 Length=0.001809 units=km
New Line.196769044$P5472028-1 phases=1 Bus1=196769047.1 Bus2=14871018.1 LineCode=1/0_AL_1PH_12KV_1 Length=0.001782 units=km
New Line.4822932E$P5634176-1 phases=3 Bus1=185094963.1.2.3 Bus2=185095006.1.2.3 LineCode=1/0_JCN_3PH_12KV_3 Length=0.03856 units=km
New Line.P5472026-1$196768953 phases=1 Bus1=14871428.1 Bus2=196768955.1 LineCode=1/0_CLP_1PH_12KV_1 Length=0.095981 units=km
New Line.B5178465-2$B5178466-1 phases=1 Bus1=43965869.2 Bus2=43963945.2 LineCode=1/0_AL_1PH_12KV_1 Length=0.07014 units=km
New Line.213158528$P5618173-1 phases=3 Bus1=213158531.1.2.3 Bus2=43964089.1.2.3 LineCode=1/0_JCN_3PH_12KV_3 Length=0.00181 units=km
New Line.B5156045-1$ND43995191 phases=1 Bus1=43995191.3 Bus2=43964137.3 LineCode=1/0_CLP_1PH_12KV_1 Length=0.157527 units=km
New Line.B5156046-2$ND43995191 phases=1 Bus1=43995191.3 Bus2=43964362.3 LineCode=1/0_CLP_1PH_12KV_1 Length=0.012792 units=km
New Line.173866454$ND43995398 phases=1 Bus1=173866456.2 Bus2=43995398.2 LineCode=2_CLP_1PH_12KV_1 Length=0.03847 units=km
New Line.ND83355675$4012441EPH1 phases=4 Bus1=83355675.0.1.2.3 Bus2=83355653.0.1.2.3 LineCode=2_ACSR_3PH_2_ACSR_N_12KV_4 Length=0.006694 units=km
New Line.702706E$191126254 phases=3 Bus1=191126201.1.2.3 Bus2=191126256.1.2.3 LineCode=1/0_JCN_3PH_12KV_3 Length=0.026518 units=km
New Line.223104931$P5741553-1 phases=3 Bus1=223104934.1.2.3 Bus2=223104887.1.2.3 LineCode=1/0_JCN_3PH_12KV_3 Length=0.008616 units=km
New Line.4242631E$230789618 phases=3 Bus1=192770908.1.2.3 Bus2=230789620.1.2.3 LineCode=1/0_JCN_3PH_12KV_3 Length=0.007925 units=km
New Line.196648595$P5427520-2 phases=1 Bus1=196648598.1 Bus2=43965169.1 LineCode=2_CLP_1PH_12KV_1 Length=0.002663 units=km
New Line.P5548359-2$83356960 phases=1 Bus1=83356553.2 Bus2=83356963.2 LineCode=2_CLP_1PH_12KV_1 Length=0.001145 units=km
New Line.196768953$P5472025-2 phases=1 Bus1=196768956.1 Bus2=14871509.1 LineCode=1/0_CLP_1PH_12KV_1 Length=0.003631 units=km
New Line.179119214$P5635989-1 phases=3 Bus1=179119217.1.2.3 Bus2=166362818.1.2.3 LineCode=1/0_JCN_3PH_12KV_3 Length=0.006999 units=km
New Line.182339815$ND182339891 phases=1 Bus1=182339891.3 Bus2=182339818.3 LineCode=1/0_CLP_1PH_12KV_1 Length=0.004992 units=km
New Line.ND43995398$203505869 phases=1 Bus1=43995398.2 Bus2=203505871.2 LineCode=2_CLP_1PH_12KV_1 Length=0.020694 units=km
New Line.P5411958-2$165378367 phases=1 Bus1=165378369.1 Bus2=43965529.1 LineCode=2_CLP_1PH_12KV_1 Length=0.11385 units=km
New Line.P5439839-2$ND43995398 phases=1 Bus1=43995398.2 Bus2=43993406.2 LineCode=2_CLP_1PH_12KV_1 Length=0.129755 units=km
New Line.ND182339891$P5467851-2 phases=1 Bus1=182339891.3 Bus2=43993992.3 LineCode=1/0_CLP_1PH_12KV_1 Length=0.002036 units=km
New Line.2198480E$ND14905962 phases=3 Bus1=14870191.1.2.3 Bus2=14905962.1.2.3 LineCode=1/0_AL_3PH_12KV_3 Length=0.029898 units=km
New Line.188600754$P5643686-1 phases=3 Bus1=188600757.1.2.3 Bus2=169455449.1.2.3 LineCode=1/0_JCN_3PH_12KV_3 Length=0.001674 units=km
New Line.PME2695-4$4012441EPH1 phases=3 Bus1=83355654.1.2.3 Bus2=83355708.1.2.3 LineCode=2_CLP_3PH_12KV_3 Length=0.024797 units=km
New Line.FD10665$B5156053-2 phases=1 Bus1=14861466.3 Bus2=14858949.3 LineCode=1/0_CLP_1PH_12KV_1 Length=0.046293 units=km
New Line.ND157796410$ND14905962 phases=1 Bus1=14905962.1 Bus2=157796410.1 LineCode=1/0_AL_1PH_12KV_1 Length=0.004269 units=km
New Line.ND14905962$ND157796436 phases=3 Bus1=14905962.1.2.3 Bus2=157796436.1.2.3 LineCode=1/0_CLP_3PH_12KV_3 Length=0.370915 units=km
New Line.4012442E$GS2562-4 phases=3 Bus1=23583554.1.2.3 Bus2=23583411.1.2.3 LineCode=750_CLP_3PH_12KV_3 Length=0.033102 units=km
New Line.B5178466-2$B5178467-1 phases=1 Bus1=43963954.2 Bus2=43963801.2 LineCode=1/0_AL_1PH_12KV_1 Length=0.075253 units=km
New Line.203505869$P5443509-2 phases=1 Bus1=203505872.2 Bus2=43966088.2 LineCode=2_CLP_1PH_12KV_1 Length=0.002308 units=km
New Line.P5467852-1$182339815 phases=1 Bus1=182339817.3 Bus2=43993911.3 LineCode=1/0_CLP_1PH_12KV_1 Length=0.082365 units=km
New Line.B5156046-1$ND43995312 phases=1 Bus1=43964353.3 Bus2=43995312.3 LineCode=1/0_CLP_1PH_12KV_1 Length=0.091429 units=km
New Line.ND157796436$ND14905849 phases=3 Bus1=157796436.1.2.3 Bus2=14905849.1.2.3 LineCode=1/0_CLP_3PH_12KV_3 Length=0.012726 units=km
New Line.ND14905921$ND157796436 phases=3 Bus1=157796436.1.2.3 Bus2=14905921.1.2.3 LineCode=1/0_CLP_3PH_12KV_3 Length=0.026891 units=km
New Line.182339793$P5467851-1 phases=1 Bus1=43993983.3 Bus2=182339796.3 LineCode=1/0_CLP_1PH_12KV_1 Length=0.000856 units=km
New Line.ND157796410$187934110 phases=1 Bus1=157796410.1 Bus2=187934112.1 LineCode=1/0_AL_1PH_12KV_1 Length=0.167607 units=km
New Line.ND157796410$188600789 phases=1 Bus1=157796410.1 Bus2=188600791.1 LineCode=1/0_AL_1PH_12KV_1 Length=0.049482 units=km
New Line.ND43995312$188600858 phases=1 Bus1=43995312.3 Bus2=188600860.3 LineCode=1/0_CLP_1PH_12KV_1 Length=0.008624 units=km
New Line.B5180191-2$ND43995312 phases=1 Bus1=43995312.3 Bus2=43964506.3 LineCode=1/0_CLP_1PH_12KV_1 Length=0.119688 units=km
New Line.P5411958-1$P5411959-2 phases=1 Bus1=43965520.1 Bus2=43965457.1 LineCode=2_CLP_1PH_12KV_1 Length=0.171764 units=km
New Line.P5439839-1$P5439840-2 phases=1 Bus1=43993397.2 Bus2=43993334.2 LineCode=2_CLP_1PH_12KV_1 Length=0.13621 units=km
New Line.P5472027-1$213158677 phases=1 Bus1=14871572.1 Bus2=213158679.1 LineCode=1/0_CLP_1PH_12KV_1 Length=0.182047 units=km
New Line.191126254$P5705941-1 phases=3 Bus1=191126257.1.2.3 Bus2=191126219.1.2.3 LineCode=1/0_JCN_3PH_12KV_3 Length=0.007505 units=km
New Line.230789618$P5705528-1 phases=3 Bus1=230789621.1.2.3 Bus2=192770978.1.2.3 LineCode=1/0_JCN_3PH_12KV_3 Length=0.010522 units=km
New Line.196768877$P5472021-1 phases=1 Bus1=14870946.1 Bus2=196768880.1 LineCode=1/0_AL_1PH_12KV_1 Length=0.004515 units=km
New Line.83356960$83356985 phases=1 Bus1=83356962.2 Bus2=83356987.2 LineCode=2_CLP_1PH_12KV_1 Length=0.163842 units=km
New Line.213158677$P5487971-2 phases=1 Bus1=213158680.1 Bus2=14873162.1 LineCode=1/0_CLP_1PH_12KV_1 Length=0.002078 units=km
New Line.ND14906397$196768877 phases=1 Bus1=196768879.1 Bus2=14906397.1 LineCode=1/0_AL_1PH_12KV_1 Length=0.105127 units=km
New Line.83356985$P5548360-2 phases=1 Bus1=83356988.2 Bus2=83356633.2 LineCode=2_CLP_1PH_12KV_1 Length=0.000465 units=km