! OpenDSS script generated from multiconductor network
Clear

New Circuit.mc_network basekv=12.0 pu=1.000000 angle=0.00 frequency=60.0 phases=3 Mvasc3=143993 Mvasc1=47997.6
~ bus1=-8888882178595.1.2.3

! Line codes
New LineCode.653_ATW_3PH_653_ATW_N_12KV_4 nphases=4 units=km Rmatrix=[ 1e-05 | 0 1e-05 | 0 0 1e-05 | 0 0 0 1e-05 ] Xmatrix=[ 1e-05 | 0 1e-05 | 0 0 1e-05 | 0 0 0 1e-05 ] Cmatrix=[ 0 | 0 0 | 0 0 0 | 0 0 0 0 ]
New LineCode.1/0_ATW_3PH_12KV_3 nphases=3 units=km Rmatrix=[ 1e-05 | 0 1e-05 | 0 0 1e-05 ] Xmatrix=[ 1e-05 | 0 1e-05 | 0 0 1e-05 ] Cmatrix=[ 0 | 0 0 | 0 0 0 ]
New LineCode.1/0_ATW_2PH_12KV_2 nphases=2 units=km Rmatrix=[ 1e-05 | 0 1e-05 ] Xmatrix=[ 1e-05 | 0 1e-05 ] Cmatrix=[ 0 | 0 0 ]
New LineCode.336_ATW_3PH_12KV_3 nphases=3 units=km Rmatrix=[ 1e-05 | 0 1e-05 | 0 0 1e-05 ] Xmatrix=[ 1e-05 | 0 1e-05 | 0 0 1e-05 ] Cmatrix=[ 0 | 0 0 | 0 0 0 ]
New LineCode.2_CLP_2PH_12KV_2 nphases=2 units=km Rmatrix=[ 0.331946 | 0 0.331946 ] Xmatrix=[ 0.069968 | 0 0.069968 ] Cmatrix=[ 0 | 0 0 ]
New LineCode.1/0_CLP_1PH_12KV_1 nphases=1 units=km Rmatrix=[ 0.00078 ] Xmatrix=[ 0.000238 ] Cmatrix=[ 0 ]
New LineCode.2_CLP_3PH_12KV_3 nphases=3 units=km Rmatrix=[ 0.125399 | 0 0.125399 | 0 0 0.125399 ] Xmatrix=[ 0.026432 | 0 0.026432 | 0 0 0.026432 ] Cmatrix=[ 0 | 0 0 | 0 0 0 ]
New LineCode.4_ACSR_2PH_12KV_2 nphases=2 units=km Rmatrix=[ 0.064018 | 0 0.064018 ] Xmatrix=[ 0.023491 | 0 0.023491 ] Cmatrix=[ 0 | 0 0 ]
New LineCode.336_ACSR_3PH_12KV_3 nphases=3 units=km Rmatrix=[ 0.018356 | 0 0.018356 | 0 0 0.018356 ] Xmatrix=[ 0.041105 | 0 0.041105 | 0 0 0.041105 ] Cmatrix=[ 0 | 0 0 | 0 0 0 ]
New LineCode.4_ACSR_3PH_12KV_3 nphases=3 units=km Rmatrix=[ 0.206145 | 0 0.206145 | 0 0 0.206145 ] Xmatrix=[ 0.075643 | 0 0.075643 | 0 0 0.075643 ] Cmatrix=[ 0 | 0 0 | 0 0 0 ]
New LineCode.1/0_ACSR_2PH_12KV_2 nphases=2 units=km Rmatrix=[ 0.001207 | 0 0.001207 ] Xmatrix=[ 0.000961 | 0 0.000961 ] Cmatrix=[ 0 | 0 0 ]
New LineCode.1/0_ACSR_3PH_12KV_3 nphases=3 units=km Rmatrix=[ 0.049845 | 0 0.049845 | 0 0 0.049845 ] Xmatrix=[ 0.039686 | 0 0.039686 | 0 0 0.039686 ] Cmatrix=[ 0 | 0 0 | 0 0 0 ]
New LineCode.2_CLP_1PH_12KV_1 nphases=1 units=km Rmatrix=[ 0.000895 ] Xmatrix=[ 0.000189 ] Cmatrix=[ 0 ]
New LineCode.1/0_CLP_3PH_12KV_3 nphases=3 units=km Rmatrix=[ 0.000977 | 0 0.000977 | 0 0 0.000977 ] Xmatrix=[ 0.000299 | 0 0.000299 | 0 0 0.000299 ] Cmatrix=[ 0 | 0 0 | 0 0 0 ]
New LineCode.1/0_CLP_2PH_12KV_2 nphases=2 units=km Rmatrix=[ 0.020958 | 0 0.020958 ] Xmatrix=[ 0.006406 | 0 0.006406 ] Cmatrix=[ 0 | 0 0 ]
New LineCode.1/0_ACSR_3PH_1/0_ACSR_N_12KV_4 nphases=4 units=km Rmatrix=[ 0.035246 | 0 0.035246 | 0 0 0.035246 | 0 0 0 0.035246 ] Xmatrix=[ 0.028063 | 0 0.028063 | 0 0 0.028063 | 0 0 0 0.028063 ] Cmatrix=[ 0 | 0 0 | 0 0 0 | 0 0 0 0 ]
New LineCode.4_ACSR_3PH_4_ACSR_N_12KV_4 nphases=4 units=km Rmatrix=[ 0.004619 | 0 0.004619 | 0 0 0.004619 | 0 0 0 0.004619 ] Xmatrix=[ 0.001554 | 0 0.001554 | 0 0 0.001554 | 0 0 0 0.001554 ] Cmatrix=[ 0 | 0 0 | 0 0 0 | 0 0 0 0 ]
New LineCode.2_JCN_1PH_12KV_1 nphases=1 units=km Rmatrix=[ 0.002288 ] Xmatrix=[ 0.000482 ] Cmatrix=[ 0 ]
New LineCode.6_CU_3PH_12KV_3 nphases=3 units=km Rmatrix=[ 0.029252 | 0 0.029252 | 0 0 0.029252 ] Xmatrix=[ 0.010369 | 0 0.010369 | 0 0 0.010369 ] Cmatrix=[ 0 | 0 0 | 0 0 0 ]
New LineCode.6_CU_2PH_12KV_2 nphases=2 units=km Rmatrix=[ 0.234914 | 0 0.234914 ] Xmatrix=[ 0.083267 | 0 0.083267 ] Cmatrix=[ 0 | 0 0 ]
New LineCode.1/0_JCN_2PH_12KV_2 nphases=2 units=km Rmatrix=[ 0.000858 | 0 0.000858 ] Xmatrix=[ 0.000262 | 0 0.000262 ] Cmatrix=[ 0 | 0 0 ]
New LineCode.1000_JCN_3PH_12KV_3 nphases=3 units=km Rmatrix=[ 0.002232 | 0 0.002232 | 0 0 0.002232 ] Xmatrix=[ 0.003378 | 0 0.003378 | 0 0 0.003378 ] Cmatrix=[ 0 | 0 0 | 0 0 0 ]
New LineCode.1/0_AL_3PH_12KV_3 nphases=3 units=km Rmatrix=[ 0.017211 | 0 0.017211 | 0 0 0.017211 ] Xmatrix=[ 0.005261 | 0 0.005261 | 0 0 0.005261 ] Cmatrix=[ 0 | 0 0 | 0 0 0 ]
New LineCode.1/0_AL_1PH_12KV_1 nphases=1 units=km Rmatrix=[ 0.025448 ] Xmatrix=[ 0.007778 ] Cmatrix=[ 0 ]
New LineCode.350_CLP_3PH_12KV_3 nphases=3 units=km Rmatrix=[ 0.005396 | 0 0.005396 | 0 0 0.005396 ] Xmatrix=[ 0.0041 | 0 0.0041 | 0 0 0.0041 ] Cmatrix=[ 0 | 0 0 | 0 0 0 ]
New LineCode.750_CLP_3PH_12KV_3 nphases=3 units=km Rmatrix=[ 0.004511 | 0 0.004511 | 0 0 0.004511 ] Xmatrix=[ 0.00554 | 0 0.00554 | 0 0 0.00554 ] Cmatrix=[ 0 | 0 0 | 0 0 0 ]
New LineCode.4_CU_3PH_12KV_3 nphases=3 units=km Rmatrix=[ 0.035475 | 0 0.035475 | 0 0 0.035475 ] Xmatrix=[ 0.019334 | 0 0.019334 | 0 0 0.019334 ] Cmatrix=[ 0 | 0 0 | 0 0 0 ]
New LineCode.2_AL_3PH_12KV_3 nphases=3 units=km Rmatrix=[ 0.066329 | 0 0.066329 | 0 0 0.066329 ] Xmatrix=[ 0.013981 | 0 0.013981 | 0 0 0.013981 ] Cmatrix=[ 0 | 0 0 | 0 0 0 ]
New LineCode.6_CU_1PH_12KV_1 nphases=1 units=km Rmatrix=[ 1e-05 ] Xmatrix=[ 1e-05 ] Cmatrix=[ 0 ]
New LineCode.1/0_ACSR_3PH_12KV_4 nphases=4 units=km Rmatrix=[ 0.049845 | 0 0.049845 | 0 0 0.049845 | 0 0 0 0.049845 ] Xmatrix=[ 0.039686 | 0 0.039686 | 0 0 0.039686 | 0 0 0 0.039686 ] Cmatrix=[ 0 | 0 0 | 0 0 0 | 0 0 0 0 ]
New LineCode.4_ACSR_3PH_12KV_4 nphases=4 units=km Rmatrix=[ 0.206145 | 0 0.206145 | 0 0 0.206145 | 0 0 0 0.206145 ] Xmatrix=[ 0.075643 | 0 0.075643 | 0 0 0.075643 | 0 0 0 0.075643 ] Cmatrix=[ 0 | 0 0 | 0 0 0 | 0 0 0 0 ]
New LineCode.2_ACSR_3PH_2_ACSR_N_12KV_4 nphases=4 units=km Rmatrix=[ 0.004051 | 0 0.004051 | 0 0 0.004051 | 0 0 0 0.004051 ] Xmatrix=[ 0.001963 | 0 0.001963 | 0 0 0.001963 | 0 0 0 0.001963 ] Cmatrix=[ 0 | 0 0 | 0 0 0 | 0 0 0 0 ]
New LineCode.4/0_ACSR_3PH_4/0_ACSR_N_12KV_4 nphases=4 units=km Rmatrix=[ 0.017181 | 0 0.017181 | 0 0 0.017181 | 0 0 0 0.017181 ] Xmatrix=[ 0.021872 | 0 0.021872 | 0 0 0.021872 | 0 0 0 0.021872 ] Cmatrix=[ 0 | 0 0 | 0 0 0 | 0 0 0 0 ]
New LineCode.336_ACSR_3PH_336_ACSR_N_12KV_4 nphases=4 units=km Rmatrix=[ 0.010125 | 0 0.010125 | 0 0 0.010125 | 0 0 0 0.010125 ] Xmatrix=[ 0.020191 | 0 0.020191 | 0 0 0.020191 | 0 0 0 0.020191 ] Cmatrix=[ 0 | 0 0 | 0 0 0 | 0 0 0 0 ]
New LineCode.4/0_ACSR_3PH_12KV_3 nphases=3 units=km Rmatrix=[ 0.000597 | 0 0.000597 | 0 0 0.000597 ] Xmatrix=[ 0.000843 | 0 0.000843 | 0 0 0.000843 ] Cmatrix=[ 0 | 0 0 | 0 0 0 ]
New LineCode.1/0_ACSR_1PH_1/0_ACSR_N_12KV_3_N nphases=3 units=km Rmatrix=[ 0.001304 | 0 0.001304 | 0 0 0.001304 ] Xmatrix=[ 0.000942 | 0 0.000942 | 0 0 0.000942 ] Cmatrix=[ 0 | 0 0 | 0 0 0 ]
New LineCode.1/0_ACSR_3PH_1/0_ACSR_N_12KV_3 nphases=3 units=km Rmatrix=[ 0.035246 | 0 0.035246 | 0 0 0.035246 ] Xmatrix=[ 0.028063 | 0 0.028063 | 0 0 0.028063 ] Cmatrix=[ 0 | 0 0 | 0 0 0 ]
New LineCode.6_CU_3PH_6_CU_N_12KV_4 nphases=4 units=km Rmatrix=[ 0.111377 | 0 0.111377 | 0 0 0.111377 | 0 0 0 0.111377 ] Xmatrix=[ 0.03597 | 0 0.03597 | 0 0 0.03597 | 0 0 0 0.03597 ] Cmatrix=[ 0 | 0 0 | 0 0 0 | 0 0 0 0 ]
New LineCode.336_ATW_3PH_336_ATW_N_12KV_4 nphases=4 units=km Rmatrix=[ 1e-05 | 0 1e-05 | 0 0 1e-05 | 0 0 0 1e-05 ] Xmatrix=[ 1e-05 | 0 1e-05 | 0 0 1e-05 | 0 0 0 1e-05 ] Cmatrix=[ 0 | 0 0 | 0 0 0 | 0 0 0 0 ]
New LineCode.2_CU_3PH_12KV_3 nphases=3 units=km Rmatrix=[ 1e-05 | 0 1e-05 | 0 0 1e-05 ] Xmatrix=[ 1e-05 | 0 1e-05 | 0 0 1e-05 ] Cmatrix=[ 0 | 0 0 | 0 0 0 ]
New LineCode.1/0_JCN_3PH_12KV_3 nphases=3 units=km Rmatrix=[ 0.136784 | 0 0.136784 | 0 0 0.136784 ] Xmatrix=[ 0.041808 | 0 0.041808 | 0 0 0.041808 ] Cmatrix=[ 0 | 0 0 | 0 0 0 ]
New LineCode.UNK_UNK_3PH_12KV_3 nphases=3 units=km Rmatrix=[ 1e-05 | 0 1e-05 | 0 0 1e-05 ] Xmatrix=[ 1e-05 | 0 1e-05 | 0 0 1e-05 ] Cmatrix=[ 0 | 0 0 | 0 0 0 ]
New LineCode.1/0_ATW_3PH_1/0_ATW_N_12KV_4 nphases=4 units=km Rmatrix=[ 1e-05 | 0 1e-05 | 0 0 1e-05 | 0 0 0 1e-05 ] Xmatrix=[ 1e-05 | 0 1e-05 | 0 0 1e-05 | 0 0 0 1e-05 ] Cmatrix=[ 0 | 0 0 | 0 0 0 | 0 0 0 0 ]
New LineCode.2_ACSR_3PH_12KV_3 nphases=3 units=km Rmatrix=[ 0.002213 | 0 0.002213 | 0 0 0.002213 ] Xmatrix=[ 0.00119 | 0 0.00119 | 0 0 0.00119 ] Cmatrix=[ 0 | 0 0 | 0 0 0 ]
New LineCode.4_CU_3PH_4_CU_N_12KV_4 nphases=4 units=km Rmatrix=[ 0.026302 | 0 0.026302 | 0 0 0.026302 | 0 0 0 0.026302 ] Xmatrix=[ 0.013015 | 0 0.013015 | 0 0 0.013015 | 0 0 0 0.013015 ] Cmatrix=[ 0 | 0 0 | 0 0 0 | 0 0 0 0 ]
New LineCode.4_CU_2PH_12KV_2 nphases=2 units=km Rmatrix=[ 0.002969 | 0 0.002969 ] Xmatrix=[ 0.001618 | 0 0.001618 ] Cmatrix=[ 0 | 0 0 ]
New LineCode.2_AL_2PH_12KV_2 nphases=2 units=km Rmatrix=[ 0.055009 | 0 0.055009 ] Xmatrix=[ 0.011595 | 0 0.011595 ] Cmatrix=[ 0 | 0 0 ]
New LineCode.1/0_AL_2PH_12KV_2 nphases=2 units=km Rmatrix=[ 0.066718 | 0 0.066718 ] Xmatrix=[ 0.020392 | 0 0.020392 ] Cmatrix=[ 0 | 0 0 ]
New LineCode.2_JCN_2PH_12KV_2 nphases=2 units=km Rmatrix=[ 0.003155 | 0 0.003155 ] Xmatrix=[ 0.000665 | 0 0.000665 ] Cmatrix=[ 0 | 0 0 ]
New LineCode.350_JCN_3PH_12KV_3 nphases=3 units=km Rmatrix=[ 0.082724 | 0 0.082724 | 0 0 0.082724 ] Xmatrix=[ 0.062853 | 0 0.062853 | 0 0 0.062853 ] Cmatrix=[ 0 | 0 0 | 0 0 0 ]
New LineCode.1/0_JCN_1PH_12KV_1 nphases=1 units=km Rmatrix=[ 0.04966 ] Xmatrix=[ 0.015179 ] Cmatrix=[ 0 ]
New LineCode.6_CU_2PH_6_CU_N_12KV_3_N nphases=3 units=km Rmatrix=[ 0.006789 | 0 0.006789 | 0 0 0.006789 ] Xmatrix=[ 0.002193 | 0 0.002193 | 0 0 0.002193 ] Cmatrix=[ 0 | 0 0 | 0 0 0 ]
New LineCode.1/0_ATW_3PH_12KV_2 nphases=2 units=km Rmatrix=[ 1e-05 | 0 1e-05 ] Xmatrix=[ 1e-05 | 0 1e-05 ] Cmatrix=[ 0 | 0 0 ]

! Lines
New Line.12960$4504454ET1 phases=4 Bus1=-8888882178595.0.1.2.3 Bus2=107618635.0.1.2.3 LineCode=653_ATW_3PH_653_ATW_N_12KV_4 Length=0.022998 units=km
New Line.BF00823$ND240340248 phases=3 Bus1=240340248.1.2.3 Bus2=213296317.1.2.3 LineCode=1/0_ATW_3PH_12KV_3 Length=0.008278 units=km
New Line.PS0875$BF00823 phases=3 Bus1=213296316.1.2.3 Bus2=173662245.1.2.3 LineCode=1/0_ATW_3PH_12KV_3 Length=0.016981 units=km
New Line.2162098E$PS0875 phases=3 Bus1=173662244.1.2.3 Bus2=29076130.1.2.3 LineCode=1/0_ATW_3PH_12KV_3 Length=0.054271 units=km
New Line.ND29221717$2162098E phases=3 Bus1=29076130.1.2.3 Bus2=29221717.1.2.3 LineCode=1/0_ATW_3PH_12KV_3 Length=0.063561 units=km
New Line.2293429E$ND29221717 phases=3 Bus1=29221717.1.2.3 Bus2=29076030.1.2.3 LineCode=1/0_ATW_3PH_12KV_3 Length=0.063572 units=km
New Line.FD33024$2311746E phases=2 Bus1=70838205.2.3 Bus2=29078538.2.3 LineCode=1/0_ATW_2PH_12KV_2 Length=0.07284 units=km
New Line.2152013E$ND29224764 phases=3 Bus1=29077967.1.2.3 Bus2=29224764.1.2.3 LineCode=336_ATW_3PH_12KV_3 Length=0.083202 units=km
New Line.BF00816$4115509E phases=2 Bus1=213297048.2.3 Bus2=29077994.2.3 LineCode=1/0_ATW_2PH_12KV_2 Length=0.071538 units=km
New Line.PS2963$4227716E phases=2 Bus1=240348539.1.2 Bus2=29078203.1.2 LineCode=1/0_ATW_2PH_12KV_2 Length=0.00051 units=km
New Line.ND29224764$2357284E phases=3 Bus1=29224764.1.2.3 Bus2=29181128.1.2.3 LineCode=336_ATW_3PH_12KV_3 Length=0.059666 units=km
New Line.ND29224764$ND29223728 phases=3 Bus1=29224764.1.2.3 Bus2=29223728.1.2.3 LineCode=336_ATW_3PH_12KV_3 Length=0.156714 units=km
New Line.BF00818$ND29223728 phases=3 Bus1=29223728.1.2.3 Bus2=213297422.1.2.3 LineCode=1/0_ATW_3PH_12KV_3 Length=0.004779 units=km
New Line.ND29223728$ND29223315 phases=3 Bus1=29223728.1.2.3 Bus2=29223315.1.2.3 LineCode=336_ATW_3PH_12KV_3 Length=0.154054 units=km
New Line.BF00819$ND29223315 phases=3 Bus1=29223315.1.2.3 Bus2=213297444.1.2.3 LineCode=1/0_ATW_3PH_12KV_3 Length=0.001981 units=km
New Line.PS0173$ND29223315 phases=3 Bus1=29223315.1.2.3 Bus2=29181648.1.2.3 LineCode=336_ATW_3PH_12KV_3 Length=0.081609 units=km
New Line.BF00818$4691737E phases=3 Bus1=213297421.1.2.3 Bus2=148237835.1.2.3 LineCode=1/0_ATW_3PH_12KV_3 Length=0.051466 units=km
New Line.PS0193$ND201235345 phases=3 Bus1=201235345.1.2.3 Bus2=29181704.1.2.3 LineCode=336_ATW_3PH_12KV_3 Length=0.083582 units=km
New Line.BF00819$4526187E phases=3 Bus1=213297443.1.2.3 Bus2=29077654.1.2.3 LineCode=1/0_ATW_3PH_12KV_3 Length=0.048347 units=km
New Line.PS0193$BF00817 phases=3 Bus1=29181705.1.2.3 Bus2=213297399.1.2.3 LineCode=336_ATW_3PH_12KV_3 Length=0.062383 units=km
New Line.2013469E$BF00817 phases=3 Bus1=213297400.1.2.3 Bus2=29077940.1.2.3 LineCode=1/0_ATW_3PH_12KV_3 Length=0.043092 units=km
New Line.ND29223002$BF01569 phases=2 Bus1=29223002.1.3 Bus2=219700663.1.3 LineCode=1/0_ATW_2PH_12KV_2 Length=0.003397 units=km
New Line.2013469E$ND29223362 phases=3 Bus1=29077940.1.2.3 Bus2=29223362.1.2.3 LineCode=1/0_ATW_3PH_12KV_3 Length=0.06311 units=km
New Line.BF00820$ND29222518 phases=3 Bus1=29222518.1.2.3 Bus2=213297466.1.2.3 LineCode=1/0_ATW_3PH_12KV_3 Length=0.087599 units=km
New Line.1865263E$ND216187337 phases=3 Bus1=29077501.1.2.3 Bus2=216187337.1.2.3 LineCode=1/0_ATW_3PH_12KV_3 Length=0.03694 units=km
New Line.4495534E$BF01569 phases=2 Bus1=219700664.1.3 Bus2=29179595.1.3 LineCode=1/0_ATW_2PH_12KV_2 Length=0.079209 units=km
New Line.BF00820$1070929E phases=3 Bus1=213297465.1.2.3 Bus2=29077474.1.2.3 LineCode=1/0_ATW_3PH_12KV_3 Length=0.109972 units=km
New Line.5405E$BF01567 phases=3 Bus1=29077594.1.2.3 Bus2=242040873.1.2.3 LineCode=1/0_ATW_3PH_12KV_3 Length=0.044605 units=km
New Line.BF01567$ND29224583 phases=3 Bus1=242040874.1.2.3 Bus2=29224583.1.2.3 LineCode=1/0_ATW_3PH_12KV_3 Length=0.001827 units=km
New Line.ND29224583$4311324E phases=2 Bus1=29224583.1.3 Bus2=29050508.1.3 LineCode=1/0_ATW_2PH_12KV_2 Length=0.086331 units=km
New Line.ND29224583$4639890E phases=2 Bus1=29224583.2.3 Bus2=29076309.2.3 LineCode=1/0_ATW_2PH_12KV_2 Length=0.087476 units=km
New Line.782329E$ND29224269 phases=3 Bus1=29077607.1.2.3 Bus2=29224269.1.2.3 LineCode=1/0_ATW_3PH_12KV_3 Length=0.031784 units=km
New Line.BF00821$ND29224269 phases=2 Bus1=29224269.2.3 Bus2=213297081.2.3 LineCode=1/0_ATW_2PH_12KV_2 Length=0.005449 units=km
New Line.ND29224269$4538377E phases=3 Bus1=29224269.1.2.3 Bus2=29076232.1.2.3 LineCode=1/0_ATW_3PH_12KV_3 Length=0.084999 units=km
New Line.ND29181549$4538377E phases=3 Bus1=29076232.1.2.3 Bus2=29181549.1.2.3 LineCode=1/0_ATW_3PH_12KV_3 Length=0.07313 units=km
New Line.BF00821$1764472E phases=2 Bus1=213297080.2.3 Bus2=29076259.2.3 LineCode=1/0_ATW_2PH_12KV_2 Length=0.043556 units=km
New Line.ND29181549$ND29272600 phases=3 Bus1=29181549.1.2.3 Bus2=29272600.1.2.3 LineCode=1/0_ATW_3PH_12KV_3 Length=0.151855 units=km
New Line.BF00822$ND29272600 phases=2 Bus1=29272600.1.2 Bus2=213296428.1.2 LineCode=1/0_ATW_2PH_12KV_2 Length=0.002977 units=km
New Line.1764472E$1764474E phases=2 Bus1=29076259.2.3 Bus2=29076284.2.3 LineCode=1/0_ATW_2PH_12KV_2 Length=0.133518 units=km
New Line.ND29272600$RCS0059 phases=3 Bus1=29272600.1.2.3 Bus2=29181562.1.2.3 LineCode=1/0_ATW_3PH_12KV_3 Length=0.183183 units=km
New Line.BF00822$1375608E phases=2 Bus1=213296429.1.2 Bus2=29076180.1.2 LineCode=1/0_ATW_2PH_12KV_2 Length=0.08795 units=km
New Line.ND29221611$1181901E phases=3 Bus1=29221611.1.2.3 Bus2=29075790.1.2.3 LineCode=1/0_ATW_3PH_12KV_3 Length=0.053223 units=km
New Line.1375608E$ND29222771 phases=2 Bus1=29076180.1.2 Bus2=29222771.1.2 LineCode=1/0_ATW_2PH_12KV_2 Length=0.063166 units=km
New Line.ND29222771$1375606E phases=2 Bus1=29222771.1.2 Bus2=29076155.1.2 LineCode=1/0_ATW_2PH_12KV_2 Length=0.057396 units=km
New Line.ND29222771$1406955E phases=2 Bus1=29222771.1.2 Bus2=29076205.1.2 LineCode=1/0_ATW_2PH_12KV_2 Length=0.043698 units=km
New Line.ND29221752$PS0363 phases=3 Bus1=29221752.1.2.3 Bus2=29181537.1.2.3 LineCode=1/0_ATW_3PH_12KV_3 Length=0.128966 units=km
New Line.BF00825$ND29222015 phases=3 Bus1=29222015.1.2.3 Bus2=213296365.1.2.3 LineCode=1/0_ATW_3PH_12KV_3 Length=0.001985 units=km
New Line.ND29222015$ND29222016 phases=3 Bus1=29222015.1.2.3 Bus2=29222016.1.2.3 LineCode=1/0_ATW_3PH_12KV_3 Length=0.121385 units=km
New Line.ND29222016$PS0877 phases=3 Bus1=29222016.1.2.3 Bus2=173662284.1.2.3 LineCode=1/0_ATW_3PH_12KV_3 Length=0.365283 units=km
New Line.PS0363$ND219309313 phases=3 Bus1=29181538.1.2.3 Bus2=219309313.1.2.3 LineCode=1/0_ATW_3PH_12KV_3 Length=0.003295 units=km
New Line.ND29222016$ND230450551 phases=2 Bus1=29222016.1.2 Bus2=230450551.1.2 LineCode=1/0_ATW_2PH_12KV_2 Length=0.001996 units=km
New Line.ND219309313$BF00824 phases=3 Bus1=219309313.1.2.3 Bus2=213296460.1.2.3 LineCode=1/0_ATW_3PH_12KV_3 Length=0.036237 units=km
New Line.ND230450551$BF00826 phases=2 Bus1=230450551.1.2 Bus2=213296497.1.2 LineCode=1/0_ATW_2PH_12KV_2 Length=0.002641 units=km
New Line.4606295E$ND213296415 phases=3 Bus1=213296415.1.2.3 Bus2=29075563.1.2.3 LineCode=1/0_ATW_3PH_12KV_3 Length=0.203142 units=km
New Line.BF00826$4107152E phases=2 Bus1=213296498.1.2 Bus2=29075146.1.2 LineCode=1/0_ATW_2PH_12KV_2 Length=0.119977 units=km
New Line.4785407E$BF00824 phases=3 Bus1=213296461.1.2.3 Bus2=29075817.1.2.3 LineCode=1/0_ATW_3PH_12KV_3 Length=0.063824 units=km
New Line.4606295E$ND29222509 phases=3 Bus1=29075563.1.2.3 Bus2=29222509.1.2.3 LineCode=1/0_ATW_3PH_12KV_3 Length=0.1505 units=km
New Line.ND29222509$ND140725674 phases=3 Bus1=29222509.1.2.3 Bus2=140725674.1.2.3 LineCode=1/0_ATW_3PH_12KV_3 Length=0.04679 units=km
New Line.ND29222509$1610083E phases=3 Bus1=29222509.1.2.3 Bus2=29075475.1.2.3 LineCode=1/0_ATW_3PH_12KV_3 Length=0.157229 units=km
New Line.1733346E$4785407E phases=3 Bus1=29075817.1.2.3 Bus2=29075763.1.2.3 LineCode=1/0_ATW_3PH_12KV_3 Length=0.033678 units=km
New Line.4107152E$ND29272451 phases=2 Bus1=29075146.1.2 Bus2=29272451.1.2 LineCode=1/0_ATW_2PH_12KV_2 Length=0.087205 units=km
New Line.ND140725674$4728915E phases=3 Bus1=140725674.1.2.3 Bus2=144141257.1.2.3 LineCode=1/0_ATW_3PH_12KV_3 Length=0.026772 units=km
New Line.1610083E$PS2941 phases=2 Bus1=29075475.2.3 Bus2=240413893.2.3 LineCode=1/0_ATW_2PH_12KV_2 Length=0.10058 units=km
New Line.ND140725674$PS2940 phases=2 Bus1=140725674.2.3 Bus2=240413938.2.3 LineCode=1/0_ATW_2PH_12KV_2 Length=0.003406 units=km
New Line.ND29272451$PS2939 phases=2 Bus1=29272451.1.2 Bus2=240413977.1.2 LineCode=1/0_ATW_2PH_12KV_2 Length=0.004976 units=km
New Line.ND29272451$2114664E phases=2 Bus1=29272451.1.2 Bus2=29075171.1.2 LineCode=1/0_ATW_2PH_12KV_2 Length=0.056545 units=km
New Line.ND29221717$2099990E phases=2 Bus1=29221717.1.3 Bus2=29076080.1.3 LineCode=1/0_ATW_2PH_12KV_2 Length=0.153438 units=km
New Line.4332372E$ND29051271 phases=2 Bus1=29051276.1.3 Bus2=29051249.1.3 LineCode=2_CLP_2PH_12KV_2 Length=0.30461 units=km
New Line.B5012499-2$1805906E phases=1 Bus1=29050542.3 Bus2=29118108.3 LineCode=1/0_CLP_1PH_12KV_1 Length=0.051387 units=km
New Line.241636494$FD33218 phases=3 Bus1=70838190.1.2.3 Bus2=241636496.1.2.3 LineCode=2_CLP_3PH_12KV_3 Length=0.152578 units=km
New Line.P5529009-A$241636494 phases=3 Bus1=241636497.1.2.3 Bus2=70838312.1.2.3 LineCode=2_CLP_3PH_12KV_3 Length=0.001701 units=km
New Line.P5529009-B$241636469 phases=3 Bus1=70838295.1.2.3 Bus2=241636472.1.2.3 LineCode=2_CLP_3PH_12KV_3 Length=0.002672 units=km
New Line.241636469$J009-1P phases=3 Bus1=241636471.1.2.3 Bus2=183072593.1.2.3 LineCode=2_CLP_3PH_12KV_3 Length=0.085869 units=km
New Line.J009-3P$241636442 phases=2 Bus1=183072601.1.3 Bus2=241636444.1.3 LineCode=2_CLP_2PH_12KV_2 Length=0.136705 units=km
New Line.PH2311747E$J009-4P phases=3 Bus1=183072609.1.2.3 Bus2=70838210.1.2.3 LineCode=2_CLP_3PH_12KV_3 Length=0.048097 units=km
New Line.241636442$P5529010-A phases=2 Bus1=241636445.1.3 Bus2=183072795.1.3 LineCode=2_CLP_2PH_12KV_2 Length=0.002347 units=km
New Line.BF00806$ND29221944 phases=2 Bus1=29221944.1.2 Bus2=213296965.1.2 LineCode=4_ACSR_2PH_12KV_2 Length=0.006565 units=km
New Line.BF00806$1248236E phases=2 Bus1=213296966.1.2 Bus2=29078742.1.2 LineCode=4_ACSR_2PH_12KV_2 Length=0.073134 units=km
New Line.ND29274473$ND29224502 phases=3 Bus1=29274473.1.2.3 Bus2=29224502.1.2.3 LineCode=336_ACSR_3PH_12KV_3 Length=0.265265 units=km
New Line.PH2293402E$ND183072747 phases=3 Bus1=183072747.1.2.3 Bus2=70838189.1.2.3 LineCode=4_ACSR_3PH_12KV_3 Length=0.008949 units=km
New Line.ND197280062$PS2964 phases=2 Bus1=197280062.1.2 Bus2=240348502.1.2 LineCode=1/0_ACSR_2PH_12KV_2 Length=0.005451 units=km
New Line.ND305729883$886E phases=2 Bus1=305729883.1.2 Bus2=197280096.1.2 LineCode=4_ACSR_2PH_12KV_2 Length=0.001338 units=km
New Line.PS2964$1375798E phases=2 Bus1=240348503.1.2 Bus2=29052300.1.2 LineCode=1/0_ACSR_2PH_12KV_2 Length=0.00388 units=km
New Line.ND29224732$2152013E phases=3 Bus1=29224732.1.2.3 Bus2=29077967.1.2.3 LineCode=1/0_ACSR_3PH_12KV_3 Length=0.000678 units=km
New Line.P5515751-2$36081707 phases=2 Bus1=36081710.1.2 Bus2=36081732.1.2 LineCode=2_CLP_2PH_12KV_2 Length=0.001712 units=km
New Line.106198753$P5575454-2 phases=1 Bus1=106198756.1 Bus2=106198689.1 LineCode=2_CLP_1PH_12KV_1 Length=0.00262 units=km
New Line.512492E$ND29223909 phases=3 Bus1=29120851.1.2.3 Bus2=29223909.1.2.3 LineCode=1/0_CLP_3PH_12KV_3 Length=0.047577 units=km
New Line.250374439$ND29223909 phases=2 Bus1=29223909.1.3 Bus2=250374441.1.3 LineCode=1/0_CLP_2PH_12KV_2 Length=0.048293 units=km
New Line.B5409066-1$ND29223909 phases=2 Bus1=29223909.2.3 Bus2=29120710.2.3 LineCode=1/0_CLP_2PH_12KV_2 Length=0.254626 units=km
New Line.P5012329-B$B5012455-1 phases=2 Bus1=36023802.1.3 Bus2=36025158.1.3 LineCode=2_CLP_2PH_12KV_2 Length=0.072969 units=km
New Line.P5515751-1$36081789 phases=2 Bus1=36081723.1.2 Bus2=36081791.1.2 LineCode=2_CLP_2PH_12KV_2 Length=0.132091 units=km
New Line.P5415505-1$250374439 phases=2 Bus1=250374442.1.3 Bus2=29120782.1.3 LineCode=1/0_CLP_2PH_12KV_2 Length=0.002031 units=km
New Line.ND233425344$615E phases=4 Bus1=233425344.0.1.2.3 Bus2=233425317.0.1.2.3 LineCode=1/0_ACSR_3PH_1/0_ACSR_N_12KV_4 Length=0.001765 units=km
New Line.36081789$P5515752-2 phases=2 Bus1=36081792.1.2 Bus2=36081814.1.2 LineCode=2_CLP_2PH_12KV_2 Length=0.000588 units=km
New Line.PH829E$ND102586948 phases=4 Bus1=102586948.0.1.2.3 Bus2=102586925.0.1.2.3 LineCode=4_ACSR_3PH_4_ACSR_N_12KV_4 Length=0.00429 units=km
New Line.301348984$615E phases=1 Bus1=233425308.2 Bus2=301348986.2 LineCode=1/0_CLP_1PH_12KV_1 Length=0.115006 units=km
New Line.PH830E$102587025 phases=1 Bus1=102586926.3 Bus2=102587027.3 LineCode=2_CLP_1PH_12KV_1 Length=0.131645 units=km
New Line.1112614E$BS0907-1 phases=3 Bus1=29052327.1.2.3 Bus2=29120014.1.2.3 LineCode=2_CLP_3PH_12KV_3 Length=0.030563 units=km
New Line.98882464$P5515752-1 phases=2 Bus1=36081805.1.2 Bus2=98882467.1.2 LineCode=2_CLP_2PH_12KV_2 Length=0.000626 units=km
New Line.P5700209-1$301348984 phases=1 Bus1=301348987.2 Bus2=233425243.2 LineCode=1/0_CLP_1PH_12KV_1 Length=0.001111 units=km
New Line.102587025$P5575453-2 phases=1 Bus1=102587028.3 Bus2=102586971.3 LineCode=2_CLP_1PH_12KV_1 Length=0.002835 units=km
New Line.ND83777795$BS0907-1 phases=2 Bus1=29120015.2.3 Bus2=83777795.2.3 LineCode=2_CLP_2PH_12KV_2 Length=0.01233 units=km
New Line.98882464$98882432 phases=2 Bus1=98882466.1.2 Bus2=98882434.1.2 LineCode=2_CLP_2PH_12KV_2 Length=0.066615 units=km
New Line.B5340166-1$ND83777795 phases=2 Bus1=83777795.2.3 Bus2=29119870.2.3 LineCode=2_CLP_2PH_12KV_2 Length=0.092228 units=km
New Line.ND83777795$83777776 phases=2 Bus1=83777795.2.3 Bus2=83777778.2.3 LineCode=2_CLP_2PH_12KV_2 Length=0.194671 units=km
New Line.98882432$P5561294-2 phases=2 Bus1=98882435.1.2 Bus2=98882300.1.2 LineCode=2_CLP_2PH_12KV_2 Length=0.003379 units=km
New Line.P5575453-1$184033452 phases=1 Bus1=102586962.3 Bus2=184033455.3 LineCode=2_JCN_1PH_12KV_1 Length=0.003401 units=km
New Line.83777776$P5557662-2 phases=2 Bus1=83777779.2.3 Bus2=83777701.2.3 LineCode=2_CLP_2PH_12KV_2 Length=0.004282 units=km
New Line.B5340165-1$B5340166-2 phases=2 Bus1=29119879.2.3 Bus2=29119942.2.3 LineCode=2_CLP_2PH_12KV_2 Length=0.142825 units=km
New Line.184033452$184033478 phases=1 Bus1=184033454.3 Bus2=184033480.3 LineCode=2_JCN_1PH_12KV_1 Length=0.055547 units=km
New Line.98882444$P5561294-1 phases=2 Bus1=98882291.1.2 Bus2=98882447.1.2 LineCode=2_CLP_2PH_12KV_2 Length=0.000948 units=km
New Line.83777766$P5557662-1 phases=2 Bus1=83777692.2.3 Bus2=83777769.2.3 LineCode=2_CLP_2PH_12KV_2 Length=0.003725 units=km
New Line.184033478$P5644643-2 phases=1 Bus1=184033481.3 Bus2=184033316.3 LineCode=2_JCN_1PH_12KV_1 Length=0.002054 units=km
New Line.98882444$98882454 phases=2 Bus1=98882446.1.2 Bus2=98882456.1.2 LineCode=2_CLP_2PH_12KV_2 Length=0.1569 units=km
New Line.83777766$83777754 phases=2 Bus1=83777768.2.3 Bus2=83777756.2.3 LineCode=2_CLP_2PH_12KV_2 Length=0.104304 units=km
New Line.98882454$P5561296-1 phases=2 Bus1=98882457.1.2 Bus2=98882366.1.2 LineCode=2_CLP_2PH_12KV_2 Length=0.004439 units=km
New Line.P5644643-1$184033503 phases=1 Bus1=184033307.3 Bus2=184033506.3 LineCode=2_JCN_1PH_12KV_1 Length=0.001888 units=km
New Line.83777754$P5557663-2 phases=2 Bus1=83777757.2.3 Bus2=83777633.2.3 LineCode=2_CLP_2PH_12KV_2 Length=0.002552 units=km
New Line.184033503$184033528 phases=1 Bus1=184033505.3 Bus2=184033530.3 LineCode=2_JCN_1PH_12KV_1 Length=0.025015 units=km
New Line.184033528$P5644644-2 phases=1 Bus1=184033531.3 Bus2=184033384.3 LineCode=2_JCN_1PH_12KV_1 Length=0.002167 units=km
New Line.ND29221692$PS6586 phases=3 Bus1=29221692.1.2.3 Bus2=239765684.1.2.3 LineCode=1/0_ACSR_3PH_12KV_3 Length=0.071336 units=km
New Line.PS6586$1112614E phases=3 Bus1=239765685.1.2.3 Bus2=29052326.1.2.3 LineCode=1/0_ACSR_3PH_12KV_3 Length=0.001357 units=km
New Line.ND102586948$ND29180058 phases=3 Bus1=102586948.1.2.3 Bus2=29179976.1.2.3 LineCode=6_CU_3PH_12KV_3 Length=0.063305 units=km
New Line.ND29180056$ND29221881 phases=3 Bus1=29179994.1.2.3 Bus2=29221881.1.2.3 LineCode=6_CU_3PH_12KV_3 Length=0.065212 units=km
New Line.ND29221881$4554214E phases=3 Bus1=29221881.1.2.3 Bus2=29119693.1.2.3 LineCode=1/0_ACSR_3PH_12KV_3 Length=0.064813 units=km
New Line.ND216187305$ND29221731 phases=3 Bus1=216187305.1.2.3 Bus2=29221731.1.2.3 LineCode=1/0_ACSR_3PH_12KV_3 Length=0.00415 units=km
New Line.1112859E$ND29223802 phases=3 Bus1=29118056.1.2.3 Bus2=29223802.1.2.3 LineCode=1/0_ACSR_3PH_12KV_3 Length=0.001169 units=km
New Line.BF00840$ND29223829 phases=2 Bus1=29223829.1.3 Bus2=213296091.1.3 LineCode=6_CU_2PH_12KV_2 Length=0.004576 units=km
New Line.BF00841$ND29223830 phases=2 Bus1=29223830.1.2 Bus2=213296110.1.2 LineCode=4_ACSR_2PH_12KV_2 Length=0.00499 units=km
New Line.ND29273677$407174E phases=3 Bus1=29273677.1.2.3 Bus2=29118290.1.2.3 LineCode=336_ATW_3PH_12KV_3 Length=0.046328 units=km
New Line.BF00850$4656873E phases=2 Bus1=213297668.1.3 Bus2=29118642.1.3 LineCode=1/0_ATW_2PH_12KV_2 Length=0.054414 units=km
New Line.4227744E$529324E phases=2 Bus1=29118692.1.2 Bus2=29118717.1.2 LineCode=1/0_ATW_2PH_12KV_2 Length=0.094649 units=km
New Line.705959E$ND29221988 phases=3 Bus1=29119075.1.2.3 Bus2=29221988.1.2.3 LineCode=1/0_ATW_3PH_12KV_3 Length=0.034343 units=km
New Line.891731E$ND29223083 phases=3 Bus1=29118850.1.2.3 Bus2=29223083.1.2.3 LineCode=1/0_ATW_3PH_12KV_3 Length=0.023221 units=km
New Line.1406933E$ND29223555 phases=2 Bus1=29119200.1.3 Bus2=29223555.1.3 LineCode=1/0_ATW_2PH_12KV_2 Length=0.045004 units=km
New Line.ND29223188$ND29275107 phases=3 Bus1=29223188.1.2.3 Bus2=29275107.1.2.3 LineCode=336_ATW_3PH_12KV_3 Length=0.229659 units=km
New Line.BF00802$ND29275107 phases=2 Bus1=29275107.1.3 Bus2=213296891.1.3 LineCode=1/0_ATW_2PH_12KV_2 Length=0.004141 units=km
New Line.4260376E$2210756E phases=3 Bus1=29117771.1.2.3 Bus2=218705424.1.2.3 LineCode=1/0_ATW_3PH_12KV_3 Length=0.622175 units=km
New Line.ND29275107$1375787E phases=3 Bus1=29275107.1.2.3 Bus2=29078844.1.2.3 LineCode=336_ATW_3PH_12KV_3 Length=0.064412 units=km
New Line.BF00849$4107153E phases=2 Bus1=213297733.1.3 Bus2=29118467.1.3 LineCode=1/0_ATW_2PH_12KV_2 Length=0.093271 units=km
New Line.4656873E$892067E phases=2 Bus1=29118642.1.3 Bus2=29118617.1.3 LineCode=1/0_ATW_2PH_12KV_2 Length=0.141225 units=km
New Line.ND29223083$891733E phases=2 Bus1=29223083.2.3 Bus2=29118825.2.3 LineCode=1/0_ATW_2PH_12KV_2 Length=0.093011 units=km
New Line.ND29223083$1910271E phases=3 Bus1=29223083.1.2.3 Bus2=29118875.1.2.3 LineCode=1/0_ATW_3PH_12KV_3 Length=0.092841 units=km
New Line.ND29221988$1764053E phases=2 Bus1=29221988.1.3 Bus2=29119000.1.3 LineCode=1/0_ATW_2PH_12KV_2 Length=0.026563 units=km
New Line.ND29221988$1512159E phases=3 Bus1=29221988.1.2.3 Bus2=29119025.1.2.3 LineCode=1/0_ATW_3PH_12KV_3 Length=0.083425 units=km
New Line.ND29223555$1960482E phases=2 Bus1=29223555.1.3 Bus2=29119175.1.3 LineCode=1/0_ATW_2PH_12KV_2 Length=0.02627 units=km
New Line.ND29223555$1406931E phases=2 Bus1=29223555.1.3 Bus2=29119225.1.3 LineCode=1/0_ATW_2PH_12KV_2 Length=0.057946 units=km
New Line.4365618E$BF00804 phases=2 Bus1=213549216.1.3 Bus2=29146253.1.3 LineCode=1/0_ATW_2PH_12KV_2 Length=0.026365 units=km
New Line.407174E$ND29272810 phases=3 Bus1=29118290.1.2.3 Bus2=29272810.1.2.3 LineCode=336_ATW_3PH_12KV_3 Length=0.06004 units=km
New Line.1512159E$1512160E phases=3 Bus1=29119025.1.2.3 Bus2=139204309.1.2.3 LineCode=1/0_ATW_3PH_12KV_3 Length=0.065494 units=km
New Line.1375787E$1375788E phases=3 Bus1=29078844.1.2.3 Bus2=164476205.1.2.3 LineCode=336_ATW_3PH_12KV_3 Length=0.088724 units=km
New Line.ND29272810$BF00854 phases=2 Bus1=29272810.2.3 Bus2=213297855.2.3 LineCode=1/0_ATW_2PH_12KV_2 Length=0.009323 units=km
New Line.ND29272810$2138124E phases=3 Bus1=29272810.1.2.3 Bus2=215941991.1.2.3 LineCode=336_ATW_3PH_12KV_3 Length=0.086827 units=km
New Line.1406931E$1406930E phases=2 Bus1=29119225.1.3 Bus2=29050866.1.3 LineCode=1/0_ATW_2PH_12KV_2 Length=0.052076 units=km
New Line.BF00803$2293480E phases=2 Bus1=213296870.1.2 Bus2=29078921.1.2 LineCode=1/0_ATW_2PH_12KV_2 Length=0.028856 units=km
New Line.BF00853$892048E phases=2 Bus1=213297834.1.2 Bus2=29118417.1.2 LineCode=1/0_ATW_2PH_12KV_2 Length=0.091595 units=km
New Line.892067E$892069E phases=2 Bus1=29118617.1.3 Bus2=29118567.1.3 LineCode=1/0_ATW_2PH_12KV_2 Length=0.10671 units=km
New Line.1910271E$1910272E phases=3 Bus1=29118875.1.2.3 Bus2=29118900.1.2.3 LineCode=1/0_ATW_3PH_12KV_3 Length=0.07239 units=km
New Line.ND29272810$4495438E phases=2 Bus1=29272810.1.3 Bus2=29146389.1.3 LineCode=1/0_ATW_2PH_12KV_2 Length=0.063978 units=km
New Line.1764053E$ND29272509 phases=2 Bus1=29119000.1.3 Bus2=29272509.1.3 LineCode=1/0_ATW_2PH_12KV_2 Length=0.039327 units=km
New Line.2138124E$ND215941962 phases=3 Bus1=215941991.1.2.3 Bus2=215941916.1.2.3 LineCode=336_ATW_3PH_12KV_3 Length=0.020447 units=km
New Line.BF00802$1376179E phases=2 Bus1=213296892.1.3 Bus2=29078871.1.3 LineCode=1/0_ATW_2PH_12KV_2 Length=0.090882 units=km