! OpenDSS script generated from multiconductor network
Clear

New Circuit.mc_network basekv=16.0 pu=1.000000 angle=0.00 frequency=60.0 phases=3 Mvasc3=255987 Mvasc1=85329.1
~ bus1=-8888882177584.1.2.3

! Line codes
New LineCode.1000_CLP_3PH_16KV_3 nphases=3 units=km Rmatrix=[ 0.000433 | 0 0.000433 | 0 0 0.000433 ] Xmatrix=[ 0.000655 | 0 0.000655 | 0 0 0.000655 ] Cmatrix=[ 0 | 0 0 | 0 0 0 ]
New LineCode.653_ACSR_3PH_653_ACSR_N_16KV_4 nphases=4 units=km Rmatrix=[ 0.016934 | 0 0.016934 | 0 0 0.016934 | 0 0 0 0.016934 ] Xmatrix=[ 0.057574 | 0 0.057574 | 0 0 0.057574 | 0 0 0 0.057574 ] Cmatrix=[ 0 | 0 0 | 0 0 0 | 0 0 0 0 ]
New LineCode.1000_JCN_3PH_16KV_3 nphases=3 units=km Rmatrix=[ 0.019698 | 0 0.019698 | 0 0 0.019698 ] Xmatrix=[ 0.029817 | 0 0.029817 | 0 0 0.029817 ] Cmatrix=[ 0 | 0 0 | 0 0 0 ]
New LineCode.1/0_JCN_3PH_16KV_3 nphases=3 units=km Rmatrix=[ 0.003747 | 0 0.003747 | 0 0 0.003747 ] Xmatrix=[ 0.001145 | 0 0.001145 | 0 0 0.001145 ] Cmatrix=[ 0 | 0 0 | 0 0 0 ]
New LineCode.350_JCN_3PH_16KV_3 nphases=3 units=km Rmatrix=[ 0.033764 | 0 0.033764 | 0 0 0.033764 ] Xmatrix=[ 0.025653 | 0 0.025653 | 0 0 0.025653 ] Cmatrix=[ 0 | 0 0 | 0 0 0 ]
New LineCode.1/0_CLP_3PH_16KV_3 nphases=3 units=km Rmatrix=[ 0.046113 | 0 0.046113 | 0 0 0.046113 ] Xmatrix=[ 0.014094 | 0 0.014094 | 0 0 0.014094 ] Cmatrix=[ 0 | 0 0 | 0 0 0 ]
New LineCode.350_AL_3PH_16KV_3 nphases=3 units=km Rmatrix=[ 0.051611 | 0 0.051611 | 0 0 0.051611 ] Xmatrix=[ 0.039214 | 0 0.039214 | 0 0 0.039214 ] Cmatrix=[ 0 | 0 0 | 0 0 0 ]
New LineCode.1/0_JCN_2PH_16KV_2 nphases=2 units=km Rmatrix=[ 0.160086 | 0 0.160086 ] Xmatrix=[ 0.04893 | 0 0.04893 ] Cmatrix=[ 0 | 0 0 ]
New LineCode.350_AL_2PH_16KV_2 nphases=2 units=km Rmatrix=[ 0.019605 | 0 0.019605 ] Xmatrix=[ 0.014895 | 0 0.014895 ] Cmatrix=[ 0 | 0 0 ]
New LineCode.1/0_JCN_1PH_16KV_1 nphases=1 units=km Rmatrix=[ 0.019779 ] Xmatrix=[ 0.006045 ] Cmatrix=[ 0 ]
New LineCode.350_AL_1PH_16KV_1 nphases=1 units=km Rmatrix=[ 0.007772 ] Xmatrix=[ 0.005905 ] Cmatrix=[ 0 ]
New LineCode.1/0_CLP_1PH_16KV_1 nphases=1 units=km Rmatrix=[ 0.027583 ] Xmatrix=[ 0.008431 ] Cmatrix=[ 0 ]
New LineCode.2_CLP_1PH_16KV_1 nphases=1 units=km Rmatrix=[ 0.15278 ] Xmatrix=[ 0.032203 ] Cmatrix=[ 0 ]
New LineCode.1/0_AL_3PH_16KV_3 nphases=3 units=km Rmatrix=[ 0.024328 | 0 0.024328 | 0 0 0.024328 ] Xmatrix=[ 0.007436 | 0 0.007436 | 0 0 0.007436 ] Cmatrix=[ 0 | 0 0 | 0 0 0 ]
New LineCode.1/0_CLP_2PH_16KV_2 nphases=2 units=km Rmatrix=[ 0.346036 | 0 0.346036 ] Xmatrix=[ 0.105765 | 0 0.105765 ] Cmatrix=[ 0 | 0 0 ]
New LineCode.2_CLP_3PH_16KV_3 nphases=3 units=km Rmatrix=[ 0.093591 | 0 0.093591 | 0 0 0.093591 ] Xmatrix=[ 0.019727 | 0 0.019727 | 0 0 0.019727 ] Cmatrix=[ 0 | 0 0 | 0 0 0 ]
New LineCode.1/0_AL_2PH_16KV_2 nphases=2 units=km Rmatrix=[ 0.079814 | 0 0.079814 ] Xmatrix=[ 0.024395 | 0 0.024395 ] Cmatrix=[ 0 | 0 0 ]
New LineCode.2_CLP_2PH_16KV_2 nphases=2 units=km Rmatrix=[ 0.180035 | 0 0.180035 ] Xmatrix=[ 0.037948 | 0 0.037948 ] Cmatrix=[ 0 | 0 0 ]
New LineCode.350_CLP_3PH_16KV_3 nphases=3 units=km Rmatrix=[ 0.068653 | 0 0.068653 | 0 0 0.068653 ] Xmatrix=[ 0.052162 | 0 0.052162 | 0 0 0.052162 ] Cmatrix=[ 0 | 0 0 | 0 0 0 ]
New LineCode.350_CLP_1PH_16KV_1 nphases=1 units=km Rmatrix=[ 0.042505 ] Xmatrix=[ 0.032295 ] Cmatrix=[ 0 ]
New LineCode.750_CLP_3PH_16KV_3 nphases=3 units=km Rmatrix=[ 0.05448 | 0 0.05448 | 0 0 0.05448 ] Xmatrix=[ 0.066908 | 0 0.066908 | 0 0 0.066908 ] Cmatrix=[ 0 | 0 0 | 0 0 0 ]
New LineCode.2_JCN_1PH_16KV_1 nphases=1 units=km Rmatrix=[ 0.220494 ] Xmatrix=[ 0.046476 ] Cmatrix=[ 0 ]
New LineCode.1/0_AL_1PH_16KV_1 nphases=1 units=km Rmatrix=[ 0.047522 ] Xmatrix=[ 0.014525 ] Cmatrix=[ 0 ]
New LineCode.4_ACSR_2PH_16KV_2 nphases=2 units=km Rmatrix=[ 0.115413 | 0 0.115413 ] Xmatrix=[ 0.04235 | 0 0.04235 ] Cmatrix=[ 0 | 0 0 ]
New LineCode.1/0_ACSR_3PH_16KV_3 nphases=3 units=km Rmatrix=[ 0.008155 | 0 0.008155 | 0 0 0.008155 ] Xmatrix=[ 0.006493 | 0 0.006493 | 0 0 0.006493 ] Cmatrix=[ 0 | 0 0 | 0 0 0 ]
New LineCode.336_ACSR_3PH_16KV_2 nphases=2 units=km Rmatrix=[ 0.024321 | 0 0.024321 ] Xmatrix=[ 0.054463 | 0 0.054463 ] Cmatrix=[ 0 | 0 0 ]
New LineCode.336_ACSR_3PH_336_ACSR_N_16KV_4 nphases=4 units=km Rmatrix=[ 0.011431 | 0 0.011431 | 0 0 0.011431 | 0 0 0 0.011431 ] Xmatrix=[ 0.022796 | 0 0.022796 | 0 0 0.022796 | 0 0 0 0.022796 ] Cmatrix=[ 0 | 0 0 | 0 0 0 | 0 0 0 0 ]
New LineCode.1/0_ACSR_3PH_16KV_2 nphases=2 units=km Rmatrix=[ 0.008155 | 0 0.008155 ] Xmatrix=[ 0.006493 | 0 0.006493 ] Cmatrix=[ 0 | 0 0 ]
New LineCode.4_ACSR_2PH_4_ACSR_N_16KV_3_N nphases=3 units=km Rmatrix=[ 0.004631 | 0 0.004631 | 0 0 0.004631 ] Xmatrix=[ 0.001558 | 0 0.001558 | 0 0 0.001558 ] Cmatrix=[ 0 | 0 0 | 0 0 0 ]
New LineCode.336_ACSR_3PH_16KV_3 nphases=3 units=km Rmatrix=[ 0.024321 | 0 0.024321 | 0 0 0.024321 ] Xmatrix=[ 0.054463 | 0 0.054463 | 0 0 0.054463 ] Cmatrix=[ 0 | 0 0 | 0 0 0 ]
New LineCode.6_CU_3PH_16KV_3 nphases=3 units=km Rmatrix=[ 0.02245 | 0 0.02245 | 0 0 0.02245 ] Xmatrix=[ 0.007958 | 0 0.007958 | 0 0 0.007958 ] Cmatrix=[ 0 | 0 0 | 0 0 0 ]
New LineCode.1/0_ACSR_2PH_16KV_2 nphases=2 units=km Rmatrix=[ 0.041808 | 0 0.041808 ] Xmatrix=[ 0.033287 | 0 0.033287 ] Cmatrix=[ 0 | 0 0 ]
New LineCode.1/0_ACSR_3PH_1/0_ACSR_N_16KV_4 nphases=4 units=km Rmatrix=[ 0.002828 | 0 0.002828 | 0 0 0.002828 | 0 0 0 0.002828 ] Xmatrix=[ 0.002044 | 0 0.002044 | 0 0 0.002044 | 0 0 0 0.002044 ] Cmatrix=[ 0 | 0 0 | 0 0 0 | 0 0 0 0 ]
New LineCode.4_ACSR_3PH_16KV_3 nphases=3 units=km Rmatrix=[ 0.101937 | 0 0.101937 | 0 0 0.101937 ] Xmatrix=[ 0.037405 | 0 0.037405 | 0 0 0.037405 ] Cmatrix=[ 0 | 0 0 | 0 0 0 ]
New LineCode.336_ACSR_2PH_336_ACSR_N_16KV_3_N nphases=3 units=km Rmatrix=[ 0.001898 | 0 0.001898 | 0 0 0.001898 ] Xmatrix=[ 0.003784 | 0 0.003784 | 0 0 0.003784 ] Cmatrix=[ 0 | 0 0 | 0 0 0 ]
New LineCode.4_ACSR_3PH_16KV_2 nphases=2 units=km Rmatrix=[ 0.101937 | 0 0.101937 ] Xmatrix=[ 0.037405 | 0 0.037405 ] Cmatrix=[ 0 | 0 0 ]
New LineCode.477_ACSR_3PH_477_ACSR_N_16KV_4 nphases=4 units=km Rmatrix=[ 0.000872 | 0 0.000872 | 0 0 0.000872 | 0 0 0 0.000872 ] Xmatrix=[ 0.002685 | 0 0.002685 | 0 0 0.002685 | 0 0 0 0.002685 ] Cmatrix=[ 0 | 0 0 | 0 0 0 | 0 0 0 0 ]
New LineCode.2_ACSR_3PH_16KV_3 nphases=3 units=km Rmatrix=[ 0.06063 | 0 0.06063 | 0 0 0.06063 ] Xmatrix=[ 0.032595 | 0 0.032595 | 0 0 0.032595 ] Cmatrix=[ 0 | 0 0 | 0 0 0 ]
New LineCode.4_ACSR_1PH_16KV_2 nphases=2 units=km Rmatrix=[ 0.149099 | 0 0.149099 ] Xmatrix=[ 0.054711 | 0 0.054711 ] Cmatrix=[ 0 | 0 0 ]
New LineCode.1/0_ATW_3PH_1/0_ATW_N_16KV_4 nphases=4 units=km Rmatrix=[ 1e-05 | 0 1e-05 | 0 0 1e-05 | 0 0 0 1e-05 ] Xmatrix=[ 1e-05 | 0 1e-05 | 0 0 1e-05 | 0 0 0 1e-05 ] Cmatrix=[ 0 | 0 0 | 0 0 0 | 0 0 0 0 ]
New LineCode.1/0_ATW_2PH_16KV_2 nphases=2 units=km Rmatrix=[ 1e-05 | 0 1e-05 ] Xmatrix=[ 1e-05 | 0 1e-05 ] Cmatrix=[ 0 | 0 0 ]

! Lines
New Line.ND33127686$1648944E phases=3 Bus1=33127686.1.2.3 Bus2=33090645.1.2.3 LineCode=1000_CLP_3PH_16KV_3 Length=0.005116 units=km
New Line.1748850E$1909018E phases=4 Bus1=33089761.0.1.2.3 Bus2=69608977.0.1.2.3 LineCode=653_ACSR_3PH_653_ACSR_N_16KV_4 Length=0.214582 units=km
New Line.GS3077-4$1909018E phases=3 Bus1=69608978.1.2.3 Bus2=211528745.1.2.3 LineCode=1000_JCN_3PH_16KV_3 Length=0.239811 units=km
New Line.GS3077-3$GS3078-5 phases=3 Bus1=211528736.1.2.3 Bus2=211528893.1.2.3 LineCode=1000_JCN_3PH_16KV_3 Length=0.513372 units=km
New Line.GS3077-2$211529468 phases=3 Bus1=211528727.1.2.3 Bus2=211529470.1.2.3 LineCode=1/0_JCN_3PH_16KV_3 Length=0.158036 units=km
New Line.GS3077-1$GS4299-4 phases=3 Bus1=211528718.1.2.3 Bus2=242641095.1.2.3 LineCode=1000_JCN_3PH_16KV_3 Length=0.206519 units=km
New Line.211529468$P5662797-A phases=3 Bus1=211529471.1.2.3 Bus2=211529216.1.2.3 LineCode=1/0_JCN_3PH_16KV_3 Length=0.000736 units=km
New Line.211529480$P5662797-B phases=3 Bus1=211529234.1.2.3 Bus2=211529483.1.2.3 LineCode=1/0_JCN_3PH_16KV_3 Length=0.004472 units=km
New Line.GS3078-2$PME3081-1 phases=3 Bus1=211528869.1.2.3 Bus2=243201378.1.2.3 LineCode=350_JCN_3PH_16KV_3 Length=0.1518 units=km
New Line.FD39040$BS2843-T phases=3 Bus1=33090287.1.2.3 Bus2=33048797.1.2.3 LineCode=1/0_CLP_3PH_16KV_3 Length=0.382645 units=km
New Line.1604465EP$BS0171-T phases=3 Bus1=33070862.1.2.3 Bus2=33070909.1.2.3 LineCode=1/0_CLP_3PH_16KV_3 Length=0.052212 units=km
New Line.BS3357-L$BS3495-1 phases=3 Bus1=33049562.1.2.3 Bus2=33072359.1.2.3 LineCode=350_AL_3PH_16KV_3 Length=0.015376 units=km
New Line.V5195517$GS3508-5 phases=3 Bus1=182200427.1.2.3 Bus2=33126911.1.2.3 LineCode=1/0_CLP_3PH_16KV_3 Length=0.013995 units=km
New Line.BS3502-1$ND33127228 phases=3 Bus1=33069947.1.2.3 Bus2=33127228.1.2.3 LineCode=1/0_CLP_3PH_16KV_3 Length=0.009094 units=km
New Line.GS3078-1$1920963E phases=3 Bus1=211528861.1.2.3 Bus2=211528635.1.2.3 LineCode=1000_JCN_3PH_16KV_3 Length=0.232632 units=km
New Line.211529480$211529490 phases=3 Bus1=211529482.1.2.3 Bus2=211529492.1.2.3 LineCode=1/0_JCN_3PH_16KV_3 Length=0.063167 units=km
New Line.ND259520367$PME3081-4 phases=3 Bus1=243201360.1.2.3 Bus2=259520367.1.2.3 LineCode=350_JCN_3PH_16KV_3 Length=0.012083 units=km
New Line.1920963E$PS0532 phases=4 Bus1=211528634.0.1.2.3 Bus2=33125237.0.1.2.3 LineCode=653_ACSR_3PH_653_ACSR_N_16KV_4 Length=0.508719 units=km
New Line.211529490$P5662799-A phases=3 Bus1=211529493.1.2.3 Bus2=211529305.1.2.3 LineCode=1/0_JCN_3PH_16KV_3 Length=0.005295 units=km
New Line.ND243201518$ND259520367 phases=3 Bus1=259520367.1.2.3 Bus2=243201518.1.2.3 LineCode=350_JCN_3PH_16KV_3 Length=0.072285 units=km
New Line.PME3081-2$243201764 phases=2 Bus1=243201369.1.2 Bus2=243201766.1.2 LineCode=1/0_JCN_2PH_16KV_2 Length=0.045206 units=km
New Line.PME3081-3$243202418 phases=3 Bus1=243201351.1.2.3 Bus2=243202421.1.2.3 LineCode=1/0_JCN_3PH_16KV_3 Length=0.00217 units=km
New Line.ND259520367$259520431 phases=3 Bus1=259520367.1.2.3 Bus2=259520433.1.2.3 LineCode=350_JCN_3PH_16KV_3 Length=0.126932 units=km
New Line.ND243201518$ND243201534 phases=3 Bus1=243201518.1.2.3 Bus2=243201534.1.2.3 LineCode=350_JCN_3PH_16KV_3 Length=0.004582 units=km
New Line.BS3357-R$ND33151329 phases=3 Bus1=33049553.1.2.3 Bus2=33151329.1.2.3 LineCode=350_AL_3PH_16KV_3 Length=0.014122 units=km
New Line.PH372$P5575047-1 phases=2 Bus1=33091602.2.3 Bus2=140927272.2.3 LineCode=350_AL_2PH_16KV_2 Length=0.076514 units=km
New Line.201157835$P5033698-A phases=2 Bus1=201157838.2.3 Bus2=188111607.2.3 LineCode=350_AL_2PH_16KV_2 Length=0.000955 units=km
New Line.ND33151329$197091340 phases=3 Bus1=33151329.1.2.3 Bus2=197091342.1.2.3 LineCode=350_AL_3PH_16KV_3 Length=0.053116 units=km
New Line.FD39038$200960210 phases=2 Bus1=33090271.1.2 Bus2=200960212.1.2 LineCode=350_AL_2PH_16KV_2 Length=0.096937 units=km
New Line.207608450$P5713760-1 phases=1 Bus1=207608240.3 Bus2=207608453.3 LineCode=1/0_JCN_1PH_16KV_1 Length=0.001647 units=km
New Line.P5777709-2$293602688 phases=2 Bus1=293602448.1.3 Bus2=293602691.1.3 LineCode=1/0_JCN_2PH_16KV_2 Length=0.001763 units=km
New Line.ND243201518$X5773566TI phases=3 Bus1=243201518.1.2.3 Bus2=243202308.1.2.3 LineCode=1/0_JCN_3PH_16KV_3 Length=0.496691 units=km
New Line.ND243201534$ND243201540 phases=3 Bus1=243201534.1.2.3 Bus2=243201540.1.2.3 LineCode=1/0_JCN_3PH_16KV_3 Length=0.024361 units=km
New Line.243201764$P5773563-1 phases=2 Bus1=243201767.1.2 Bus2=243201697.1.2 LineCode=1/0_JCN_2PH_16KV_2 Length=0.001954 units=km
New Line.243202418$ND243201828 phases=3 Bus1=243202420.1.2.3 Bus2=243201828.1.2.3 LineCode=1/0_JCN_3PH_16KV_3 Length=0.063539 units=km
New Line.259520431$P5787755-1 phases=3 Bus1=259520434.1.2.3 Bus2=259520386.1.2.3 LineCode=350_JCN_3PH_16KV_3 Length=0.002371 units=km
New Line.211529500$P5662799-B phases=3 Bus1=211529323.1.2.3 Bus2=211529503.1.2.3 LineCode=1/0_JCN_3PH_16KV_3 Length=0.004637 units=km
New Line.ND243201540$ND243201547 phases=3 Bus1=243201540.1.2.3 Bus2=243201547.1.2.3 LineCode=1/0_JCN_3PH_16KV_3 Length=0.046533 units=km
New Line.ND243201828$259517567 phases=2 Bus1=243201828.1.2 Bus2=259517569.1.2 LineCode=1/0_JCN_2PH_16KV_2 Length=0.22709 units=km
New Line.ND243201828$307603872 phases=3 Bus1=243201828.1.2.3 Bus2=307603874.1.2.3 LineCode=1/0_JCN_3PH_16KV_3 Length=0.403268 units=km
New Line.FD39041$BS0488-T phases=3 Bus1=33090303.1.2.3 Bus2=33047964.1.2.3 LineCode=350_AL_3PH_16KV_3 Length=0.066407 units=km
New Line.B5195100-2$ND33151329 phases=1 Bus1=33151329.3 Bus2=33049933.3 LineCode=350_AL_1PH_16KV_1 Length=0.035066 units=km
New Line.B5195565-2$ND33127228 phases=1 Bus1=33127228.2 Bus2=33069811.2 LineCode=1/0_CLP_1PH_16KV_1 Length=0.145855 units=km
New Line.B5195564-2$ND33127228 phases=1 Bus1=33127228.2 Bus2=33069883.2 LineCode=1/0_CLP_1PH_16KV_1 Length=0.207825 units=km
New Line.B5195563-1$ND33127228 phases=1 Bus1=33127228.2 Bus2=33069996.2 LineCode=1/0_CLP_1PH_16KV_1 Length=0.12902 units=km
New Line.V5195517$ND33151443 phases=3 Bus1=33126911.1.2.3 Bus2=33151443.1.2.3 LineCode=1/0_CLP_3PH_16KV_3 Length=0.072711 units=km
New Line.ND243201547$ND243201563 phases=3 Bus1=243201547.1.2.3 Bus2=243201563.1.2.3 LineCode=1/0_JCN_3PH_16KV_3 Length=0.025976 units=km
New Line.211529500$211529510 phases=3 Bus1=211529502.1.2.3 Bus2=211529512.1.2.3 LineCode=1/0_JCN_3PH_16KV_3 Length=0.087591 units=km
New Line.ND243201563$243201643 phases=3 Bus1=243201563.1.2.3 Bus2=243201645.1.2.3 LineCode=1/0_JCN_3PH_16KV_3 Length=0.050103 units=km
New Line.259517567$ND259517241 phases=2 Bus1=259517570.1.2 Bus2=259517241.1.2 LineCode=1/0_JCN_2PH_16KV_2 Length=0.00762 units=km
New Line.307603913$307603872 phases=3 Bus1=307603875.1.2.3 Bus2=307603916.1.2.3 LineCode=1/0_JCN_3PH_16KV_3 Length=0.013962 units=km
New Line.1359633E$200101740 phases=1 Bus1=106233664.2 Bus2=200101742.2 LineCode=2_CLP_1PH_16KV_1 Length=0.361891 units=km
New Line.FD39039$P5033880-A phases=2 Bus1=33090255.2.3 Bus2=176934956.2.3 LineCode=350_AL_2PH_16KV_2 Length=0.129863 units=km
New Line.P5777713-1$ND293602929 phases=2 Bus1=293602858.1.3 Bus2=293602929.1.3 LineCode=1/0_JCN_2PH_16KV_2 Length=0.13989 units=km
New Line.ND259517241$259517592 phases=2 Bus1=259517241.1.2 Bus2=259517595.1.2 LineCode=1/0_JCN_2PH_16KV_2 Length=0.006831 units=km
New Line.ND259517241$259517617 phases=2 Bus1=259517241.1.2 Bus2=259517620.1.2 LineCode=1/0_JCN_2PH_16KV_2 Length=0.009394 units=km
New Line.211529510$P5662801-1 phases=3 Bus1=211529513.1.2.3 Bus2=211529395.1.2.3 LineCode=1/0_JCN_3PH_16KV_3 Length=0.002363 units=km
New Line.243201643$P5773569 phases=3 Bus1=243201646.1.2.3 Bus2=243202391.1.2.3 LineCode=1/0_JCN_3PH_16KV_3 Length=0.006533 units=km
New Line.307603940$307603913 phases=3 Bus1=307603915.1.2.3 Bus2=307603942.1.2.3 LineCode=1/0_JCN_3PH_16KV_3 Length=0.113829 units=km
New Line.200101740$P5536406-1 phases=1 Bus1=200101743.2 Bus2=106233732.2 LineCode=2_CLP_1PH_16KV_1 Length=0.000702 units=km
New Line.259517592$243202244 phases=2 Bus1=259517594.1.2 Bus2=243202246.1.2 LineCode=1/0_JCN_2PH_16KV_2 Length=0.010679 units=km
New Line.259517617$259517642 phases=2 Bus1=259517619.1.2 Bus2=259517644.1.2 LineCode=1/0_JCN_2PH_16KV_2 Length=0.108293 units=km
New Line.B5160128-1$B5160127-2 phases=1 Bus1=33047629.1 Bus2=33047692.1 LineCode=350_AL_1PH_16KV_1 Length=0.12203 units=km
New Line.ND33151443$BS3809-1 phases=1 Bus1=33151443.2 Bus2=33070213.2 LineCode=1/0_CLP_1PH_16KV_1 Length=0.07305 units=km
New Line.ND33151443$1406108E phases=3 Bus1=33151443.1.2.3 Bus2=33070513.1.2.3 LineCode=1/0_AL_3PH_16KV_3 Length=0.158258 units=km
New Line.FD39037$BS2569-T phases=3 Bus1=33090239.1.2.3 Bus2=33070646.1.2.3 LineCode=1/0_AL_3PH_16KV_3 Length=0.082745 units=km
New Line.BS3495-1$ND33127795 phases=3 Bus1=33072358.1.2.3 Bus2=33127795.1.2.3 LineCode=350_AL_3PH_16KV_3 Length=0.005871 units=km
New Line.200960210$P5033883-B phases=2 Bus1=200960213.1.2 Bus2=176935231.1.2 LineCode=350_AL_2PH_16KV_2 Length=0.001318 units=km
New Line.207608450$207608460 phases=1 Bus1=207608452.3 Bus2=207608462.3 LineCode=1/0_JCN_1PH_16KV_1 Length=0.058435 units=km
New Line.207608706$P5713759-2 phases=1 Bus1=204886117.2 Bus2=207608709.2 LineCode=1/0_JCN_1PH_16KV_1 Length=0.001427 units=km
New Line.293602688$293602713 phases=2 Bus1=293602690.1.3 Bus2=293602715.1.3 LineCode=1/0_JCN_2PH_16KV_2 Length=0.005102 units=km
New Line.ND293602929$P5777715-2 phases=2 Bus1=293602929.1.3 Bus2=293602954.1.3 LineCode=1/0_JCN_2PH_16KV_2 Length=0.234683 units=km
New Line.BS2843-L$P5353974-1 phases=3 Bus1=33048789.1.2.3 Bus2=33048887.1.2.3 LineCode=1/0_CLP_3PH_16KV_3 Length=0.021911 units=km
New Line.197091340$P5195101-1 phases=3 Bus1=197091343.1.2.3 Bus2=33049660.1.2.3 LineCode=350_AL_3PH_16KV_3 Length=0.006013 units=km
New Line.B5195906-2$ND33127795 phases=1 Bus1=33127795.2 Bus2=33068444.2 LineCode=2_CLP_1PH_16KV_1 Length=0.128311 units=km
New Line.B5195666-2$ND33127795 phases=1 Bus1=33127795.1 Bus2=33068588.1 LineCode=2_CLP_1PH_16KV_1 Length=0.105344 units=km
New Line.BS0171-L$1648728E phases=3 Bus1=33070901.1.2.3 Bus2=33071025.1.2.3 LineCode=1/0_CLP_3PH_16KV_3 Length=0.014462 units=km
New Line.B5183074-1$BS0171-R phases=1 Bus1=33070892.1 Bus2=33071282.1 LineCode=1/0_CLP_1PH_16KV_1 Length=0.056875 units=km
New Line.ND307603295$307603940 phases=3 Bus1=307603943.1.2.3 Bus2=307603295.1.2.3 LineCode=1/0_JCN_3PH_16KV_3 Length=0.006371 units=km
New Line.243202244$P5776382-A phases=2 Bus1=243202247.1.2 Bus2=243202164.1.2 LineCode=1/0_JCN_2PH_16KV_2 Length=0.002964 units=km
New Line.259517642$ND259517235 phases=2 Bus1=259517645.1.2 Bus2=259517235.1.2 LineCode=1/0_JCN_2PH_16KV_2 Length=0.008359 units=km
New Line.ND307603295$ND307603270 phases=3 Bus1=307603295.1.2.3 Bus2=307603270.1.2.3 LineCode=1/0_JCN_3PH_16KV_3 Length=0.002481 units=km
New Line.ND307603295$307603967 phases=2 Bus1=307603295.2.3 Bus2=307603970.2.3 LineCode=1/0_JCN_2PH_16KV_2 Length=0.007389 units=km
New Line.ND33127795$ND33127796 phases=2 Bus1=33127795.1.2 Bus2=33127796.1.2 LineCode=350_AL_2PH_16KV_2 Length=0.010689 units=km
New Line.BS2843-R$ND33127952 phases=2 Bus1=33048780.1.2 Bus2=33127952.1.2 LineCode=1/0_CLP_2PH_16KV_2 Length=0.012546 units=km
New Line.ND259517235$259517667 phases=2 Bus1=259517235.1.2 Bus2=259517670.1.2 LineCode=1/0_JCN_2PH_16KV_2 Length=0.00861 units=km
New Line.ND259517235$259517697 phases=2 Bus1=259517235.1.2 Bus2=259517700.1.2 LineCode=1/0_JCN_2PH_16KV_2 Length=0.008883 units=km
New Line.ND307603270$307604030 phases=2 Bus1=307603270.1.3 Bus2=307604033.1.3 LineCode=1/0_JCN_2PH_16KV_2 Length=0.0051 units=km
New Line.307603967$ND307604567 phases=2 Bus1=307603969.2.3 Bus2=307604567.2.3 LineCode=1/0_JCN_2PH_16KV_2 Length=0.203029 units=km
New Line.4089263E$P5033835-1 phases=3 Bus1=33025865.1.2.3 Bus2=33025881.1.2.3 LineCode=2_CLP_3PH_16KV_3 Length=0.231942 units=km
New Line.243202269$P5776382-B phases=2 Bus1=243202156.1.2 Bus2=243202272.1.2 LineCode=1/0_JCN_2PH_16KV_2 Length=0.002014 units=km
New Line.259517697$259517879 phases=2 Bus1=259517699.1.2 Bus2=259517881.1.2 LineCode=1/0_JCN_2PH_16KV_2 Length=0.057138 units=km
New Line.259517667$259517906 phases=2 Bus1=259517669.1.2 Bus2=259517908.1.2 LineCode=1/0_JCN_2PH_16KV_2 Length=0.023603 units=km
New Line.307604030$307604055 phases=2 Bus1=307604032.1.3 Bus2=307604057.1.3 LineCode=1/0_JCN_2PH_16KV_2 Length=0.049807 units=km
New Line.ND307604567$307604518 phases=2 Bus1=307604567.2.3 Bus2=307604520.2.3 LineCode=1/0_JCN_2PH_16KV_2 Length=0.039429 units=km
New Line.ND307604567$307604828 phases=2 Bus1=307604567.2.3 Bus2=307604830.2.3 LineCode=1/0_JCN_2PH_16KV_2 Length=0.044921 units=km
New Line.ND243202016$243202269 phases=2 Bus1=243202271.1.2 Bus2=243202016.1.2 LineCode=1/0_JCN_2PH_16KV_2 Length=0.01816 units=km
New Line.259517906$P5775695-B phases=2 Bus1=259517909.1.2 Bus2=259517377.1.2 LineCode=1/0_JCN_2PH_16KV_2 Length=0.002316 units=km
New Line.259517879$P5775696-2 phases=2 Bus1=259517882.1.2 Bus2=259517821.1.2 LineCode=1/0_JCN_2PH_16KV_2 Length=0.000503 units=km
New Line.307604055$P5806213-2 phases=2 Bus1=307604058.1.3 Bus2=307603333.1.3 LineCode=1/0_JCN_2PH_16KV_2 Length=0.001711 units=km
New Line.P5806757-1$307604518 phases=2 Bus1=307604521.2.3 Bus2=307604451.2.3 LineCode=1/0_JCN_2PH_16KV_2 Length=0.000829 units=km
New Line.307604828$P5807072-1 phases=2 Bus1=307604831.2.3 Bus2=307604581.2.3 LineCode=1/0_JCN_2PH_16KV_2 Length=0.00189 units=km
New Line.ND243202016$243201971 phases=2 Bus1=243202016.1.2 Bus2=243201973.1.2 LineCode=1/0_JCN_2PH_16KV_2 Length=0.039953 units=km
New Line.ND243202016$243202097 phases=2 Bus1=243202016.1.2 Bus2=243202099.1.2 LineCode=1/0_JCN_2PH_16KV_2 Length=0.073902 units=km
New Line.BS0488-R$BS2925-T phases=3 Bus1=33047956.1.2.3 Bus2=33048119.1.2.3 LineCode=350_AL_3PH_16KV_3 Length=0.124187 units=km
New Line.B5195100-1$B5195102-1 phases=1 Bus1=33049924.3 Bus2=33049852.3 LineCode=350_AL_1PH_16KV_1 Length=0.085465 units=km
New Line.B5195673-1$ND33127796 phases=1 Bus1=33127796.2 Bus2=33068363.2 LineCode=350_AL_1PH_16KV_1 Length=0.126411 units=km
New Line.B5195567-2$B5195563-2 phases=1 Bus1=33070005.2 Bus2=33070077.2 LineCode=1/0_CLP_1PH_16KV_1 Length=0.128435 units=km
New Line.BS3809-1$B5338802-2 phases=1 Bus1=33070212.2 Bus2=33070271.2 LineCode=1/0_CLP_1PH_16KV_1 Length=0.096716 units=km
New Line.ND33127796$ND33127803 phases=2 Bus1=33127796.1.2 Bus2=33127803.1.2 LineCode=350_AL_2PH_16KV_2 Length=0.005803 units=km
New Line.ND33127952$ND33127953 phases=1 Bus1=33127952.1 Bus2=33127953.1 LineCode=1/0_CLP_1PH_16KV_1 Length=0.008203 units=km
New Line.ND33127952$ND33127967 phases=1 Bus1=33127952.2 Bus2=33127967.2 LineCode=1/0_CLP_1PH_16KV_1 Length=0.429117 units=km
New Line.BS0488-L$ND33151012 phases=3 Bus1=33047973.1.2.3 Bus2=33151012.1.2.3 LineCode=350_AL_3PH_16KV_3 Length=0.060247 units=km
New Line.P5033880-B$P5033881-A phases=2 Bus1=176934964.2.3 Bus2=176935045.2.3 LineCode=350_AL_2PH_16KV_2 Length=0.13762 units=km
New Line.243201971$P5776384-2 phases=2 Bus1=243201974.1.2 Bus2=243201866.1.2 LineCode=1/0_JCN_2PH_16KV_2 Length=0.002858 units=km
New Line.243202097$P5776385-1 phases=2 Bus1=243202100.1.2 Bus2=243202030.1.2 LineCode=1/0_JCN_2PH_16KV_2 Length=0.001907 units=km
New Line.P5775695-A$259517931 phases=2 Bus1=259517369.1.2 Bus2=259517934.1.2 LineCode=1/0_JCN_2PH_16KV_2 Length=0.002498 units=km
New Line.P5806213-1$307604080 phases=2 Bus1=307603324.1.3 Bus2=307604083.1.3 LineCode=1/0_JCN_2PH_16KV_2 Length=0.002838 units=km
New Line.P5807072-2$307604853 phases=2 Bus1=307604590.2.3 Bus2=307604856.2.3 LineCode=1/0_JCN_2PH_16KV_2 Length=0.001771 units=km
New Line.329105E$P5034195-A phases=3 Bus1=33089826.1.2.3 Bus2=151624707.1.2.3 LineCode=1/0_AL_3PH_16KV_3 Length=0.057315 units=km
New Line.1359607E$PME7302-2 phases=3 Bus1=198895259.1.2.3 Bus2=198894840.1.2.3 LineCode=1000_JCN_3PH_16KV_3 Length=0.085494 units=km
New Line.1359618E$ND102327708 phases=3 Bus1=33089989.1.2.3 Bus2=102327708.1.2.3 LineCode=350_AL_3PH_16KV_3 Length=0.050708 units=km
New Line.259517931$259517981 phases=2 Bus1=259517933.1.2 Bus2=259517983.1.2 LineCode=1/0_JCN_2PH_16KV_2 Length=0.144171 units=km
New Line.307604080$307604132 phases=2 Bus1=307604082.1.3 Bus2=307604134.1.3 LineCode=1/0_JCN_2PH_16KV_2 Length=0.04557 units=km
New Line.307604853$307604878 phases=2 Bus1=307604855.2.3 Bus2=307604880.2.3 LineCode=1/0_JCN_2PH_16KV_2 Length=0.004958 units=km
New Line.BS2569-L$200169183 phases=3 Bus1=33070638.1.2.3 Bus2=200169185.1.2.3 LineCode=1/0_AL_3PH_16KV_3 Length=0.087927 units=km
New Line.207608460$P5713761-2 phases=1 Bus1=207608463.3 Bus2=207608317.3 LineCode=1/0_JCN_1PH_16KV_1 Length=0.001478 units=km
New Line.207608668$207608706 phases=1 Bus1=207608708.2 Bus2=207608670.2 LineCode=1/0_JCN_1PH_16KV_1 Length=0.104491 units=km
New Line.293602713$P5777710-1 phases=2 Bus1=293602716.1.3 Bus2=293602772.1.3 LineCode=1/0_JCN_2PH_16KV_2 Length=0.001951 units=km
New Line.B5160129-1$B5160128-2 phases=1 Bus1=33047701.1 Bus2=33047764.1 LineCode=350_AL_1PH_16KV_1 Length=0.101711 units=km
New Line.ND33151012$P5034031-1 phases=3 Bus1=33151012.1.2.3 Bus2=33047908.1.2.3 LineCode=350_AL_3PH_16KV_3 Length=0.073737 units=km
New Line.B5034889-2$ND33127953 phases=1 Bus1=33127953.1 Bus2=33048944.1 LineCode=1/0_CLP_1PH_16KV_1 Length=0.088861 units=km
New Line.B5034887-2$ND33127953 phases=1 Bus1=33127953.1 Bus2=33049160.1 LineCode=1/0_CLP_1PH_16KV_1 Length=0.054375 units=km
New Line.B5034918-2$ND33127967 phases=1 Bus1=33127967.2 Bus2=33049376.2 LineCode=1/0_CLP_1PH_16KV_1 Length=0.471813 units=km
New Line.B5034920-1$ND33127967 phases=1 Bus1=33127967.2 Bus2=33049439.2 LineCode=1/0_CLP_1PH_16KV_1 Length=0.128178 units=km
New Line.B5195667-2$ND33127803 phases=1 Bus1=33127803.1 Bus2=33050620.1 LineCode=350_AL_1PH_16KV_1 Length=0.113818 units=km
New Line.B5034516-2$BS2569-R phases=2 Bus1=33070655.1.2 Bus2=33070802.1.2 LineCode=1/0_AL_2PH_16KV_2 Length=0.041529 units=km
New Line.ND33127803$ND33151910 phases=1 Bus1=33127803.2 Bus2=33151910.2 LineCode=2_CLP_1PH_16KV_1 Length=0.314386 units=km
New Line.ND33151012$ND94587365 phases=3 Bus1=33151012.1.2.3 Bus2=94587365.1.2.3 LineCode=350_AL_3PH_16KV_3 Length=0.098731 units=km
New Line.ND102327708$POS6714-1 phases=2 Bus1=102327708.2.3 Bus2=102327633.2.3 LineCode=2_CLP_2PH_16KV_2 Length=0.024702 units=km
New Line.ND102327708$P5197902-1 phases=3 Bus1=102327708.1.2.3 Bus2=33027030.1.2.3 LineCode=350_AL_3PH_16KV_3 Length=0.19079 units=km
New Line.PME7302-3$200762253 phases=3 Bus1=198894822.1.2.3 Bus2=200762255.1.2.3 LineCode=1/0_JCN_3PH_16KV_3 Length=0.137326 units=km
New Line.259517981$ND259520251 phases=2 Bus1=259517984.1.2 Bus2=259520251.1.2 LineCode=1/0_JCN_2PH_16KV_2 Length=0.009024 units=km
New Line.P5806214-2$307604132 phases=2 Bus1=307604135.1.3 Bus2=307603418.1.3 LineCode=1/0_JCN_2PH_16KV_2 Length=0.001199 units=km
New Line.307604878$P5807073-A phases=2 Bus1=307604881.2.3 Bus2=307604741.2.3 LineCode=1/0_JCN_2PH_16KV_2 Length=0.002644 units=km
New Line.B5034303-2$FD39034 phases=1 Bus1=33090027.3 Bus2=33026175.3 LineCode=350_AL_1PH_16KV_1 Length=0.122225 units=km
New Line.POS6714-1$B5588105-1 phases=2 Bus1=102327634.2.3 Bus2=102327429.2.3 LineCode=2_CLP_2PH_16KV_2 Length=0.160959 units=km
New Line.PME7302-4$198895528 phases=3 Bus1=198894831.1.2.3 Bus2=198895530.1.2.3 LineCode=1/0_JCN_3PH_16KV_3 Length=0.333883 units=km
New Line.ND259520251$259518006 phases=2 Bus1=259520251.1.2 Bus2=259518009.1.2 LineCode=1/0_JCN_2PH_16KV_2 Length=0.010388 units=km
New Line.ND259520251$259520332 phases=2 Bus1=259520251.1.2 Bus2=259520334.1.2 LineCode=1/0_JCN_2PH_16KV_2 Length=0.07403 units=km
New Line.FD39033$ND33127554 phases=3 Bus1=33090040.1.2.3 Bus2=33127554.1.2.3 LineCode=350_CLP_3PH_16KV_3 Length=0.309189 units=km
New Line.200762253$ND200762234 phases=3 Bus1=200762256.1.2.3 Bus2=200762234.1.2.3 LineCode=1/0_JCN_3PH_16KV_3 Length=0.002857 units=km
New Line.B5020441-2$ND33127554 phases=1 Bus1=33127554.2 Bus2=33026607.2 LineCode=1/0_CLP_1PH_16KV_1 Length=0.192198 units=km
New Line.B5034323-2$ND33127554 phases=1 Bus1=33127554.1 Bus2=33026751.1 LineCode=350_CLP_1PH_16KV_1 Length=0.13478 units=km
New Line.B5035274-1$ND33127554 phases=1 Bus1=33127554.1 Bus2=33026958.1 LineCode=350_CLP_1PH_16KV_1 Length=0.306794 units=km
New Line.ND94587365$181762758 phases=3 Bus1=94587365.1.2.3 Bus2=181762760.1.2.3 LineCode=2_CLP_3PH_16KV_3 Length=0.03918 units=km
New Line.200960198$P5033883-A phases=2 Bus1=176935223.2.3 Bus2=200960201.2.3 LineCode=350_AL_2PH_16KV_2 Length=0.001316 units=km
New Line.ND94587365$P5020520-1 phases=3 Bus1=94587365.1.2.3 Bus2=33048063.1.2.3 LineCode=350_AL_3PH_16KV_3 Length=0.060806 units=km
New Line.B5195666-1$B5195665-2 phases=1 Bus1=33068579.1 Bus2=33050764.1 LineCode=2_CLP_1PH_16KV_1 Length=0.112615 units=km
New Line.B5195669-2$ND33151910 phases=1 Bus1=33151910.2 Bus2=33050836.2 LineCode=2_CLP_1PH_16KV_1 Length=0.178647 units=km
New Line.B5195670-1$ND33151910 phases=1 Bus1=33151910.2 Bus2=33068219.2 LineCode=2_CLP_1PH_16KV_1 Length=0.030133 units=km
New Line.B5195907-2$B5195906-1 phases=1 Bus1=33068435.2 Bus2=33068516.2 LineCode=2_CLP_1PH_16KV_1 Length=0.096428 units=km
New Line.198895528$ND198895590 phases=3 Bus1=198895531.1.2.3 Bus2=198895590.1.2.3 LineCode=1/0_JCN_3PH_16KV_3 Length=0.004183 units=km
New Line.199912070$ND200762234 phases=1 Bus1=200762234.1 Bus2=199912073.1 LineCode=1/0_JCN_1PH_16KV_1 Length=0.008542 units=km
New Line.200762265$ND200762234 phases=1 Bus1=200762234.2 Bus2=200762268.2 LineCode=1/0_JCN_1PH_16KV_1 Length=0.006071 units=km
New Line.200762275$ND200762234 phases=1 Bus1=200762234.1 Bus2=200762278.1 LineCode=1/0_JCN_1PH_16KV_1 Length=0.005077 units=km
New Line.200762285$ND200762234 phases=1 Bus1=200762234.3 Bus2=200762288.3 LineCode=1/0_JCN_1PH_16KV_1 Length=0.003593 units=km
New Line.328897E$GS3787-2 phases=3 Bus1=33027100.1.2.3 Bus2=229936022.1.2.3 LineCode=1/0_CLP_3PH_16KV_3 Length=0.073058 units=km
New Line.259518006$259517956 phases=2 Bus1=259518008.1.2 Bus2=259517958.1.2 LineCode=1/0_JCN_2PH_16KV_2 Length=0.065054 units=km
New Line.259520332$P5787758-2 phases=2 Bus1=259520335.1.2 Bus2=259520274.1.2 LineCode=1/0_JCN_2PH_16KV_2 Length=0.001232 units=km
New Line.P5806214-1$307604163 phases=2 Bus1=307603409.1.3 Bus2=307604166.1.3 LineCode=1/0_JCN_2PH_16KV_2 Length=0.000925 units=km
New Line.P5807073-B$307604903 phases=2 Bus1=307604749.2.3 Bus2=307604906.2.3 LineCode=1/0_JCN_2PH_16KV_2 Length=0.003334 units=km
New Line.B5034211-2$B5034303-1 phases=1 Bus1=33026166.3 Bus2=33026247.3 LineCode=350_AL_1PH_16KV_1 Length=0.079704 units=km
New Line.B5588105-2$B5588106-2 phases=2 Bus1=102327438.2.3 Bus2=102327506.2.3 LineCode=2_CLP_2PH_16KV_2 Length=0.266318 units=km
New Line.ND198895590$198895540 phases=3 Bus1=198895590.1.2.3 Bus2=198895543.1.2.3 LineCode=1/0_JCN_3PH_16KV_3 Length=0.004479 units=km
New Line.ND198895590$198895550 phases=2 Bus1=198895590.1.3 Bus2=198895553.1.3 LineCode=1/0_JCN_2PH_16KV_2 Length=0.012843 units=km
New Line.B5183074-2$ND33150776 phases=1 Bus1=33071291.1 Bus2=33150776.1 LineCode=1/0_CLP_1PH_16KV_1 Length=0.017998 units=km
New Line.207608668$P5713763-1 phases=1 Bus1=207608671.2 Bus2=207608598.2 LineCode=1/0_JCN_1PH_16KV_1 Length=0.001043 units=km
New Line.199912036$199912070 phases=1 Bus1=199912072.1 Bus2=199912038.1 LineCode=1/0_JCN_1PH_16KV_1 Length=0.052185 units=km