! OpenDSS script generated from multiconductor network
Clear

New Circuit.mc_network basekv=12.0 pu=1.000000 angle=0.00 frequency=60.0 phases=3 Mvasc3=143993 Mvasc1=47997.6
~ bus1=-8888882184558.1.2.3

! Line codes
New LineCode.1/0_CLP_3PH_12KV_3 nphases=3 units=km Rmatrix=[ 0.047105 | 0 0.047105 | 0 0 0.047105 ] Xmatrix=[ 0.014397 | 0 0.014397 | 0 0 0.014397 ] Cmatrix=[ 0 | 0 0 | 0 0 0 ]
New LineCode.1000_CLP_3PH_12KV_3 nphases=3 units=km Rmatrix=[ 0.075291 | 0 0.075291 | 0 0 0.075291 ] Xmatrix=[ 0.113967 | 0 0.113967 | 0 0 0.113967 ] Cmatrix=[ 0 | 0 0 | 0 0 0 ]
New LineCode.1/0_ACSR_3PH_12KV_3 nphases=3 units=km Rmatrix=[ 0.002752 | 0 0.002752 | 0 0 0.002752 ] Xmatrix=[ 0.002191 | 0 0.002191 | 0 0 0.002191 ] Cmatrix=[ 0 | 0 0 | 0 0 0 ]
New LineCode.1/0_AL_3PH_12KV_3 nphases=3 units=km Rmatrix=[ 0.044832 | 0 0.044832 | 0 0 0.044832 ] Xmatrix=[ 0.013703 | 0 0.013703 | 0 0 0.013703 ] Cmatrix=[ 0 | 0 0 | 0 0 0 ]
New LineCode.350_AL_3PH_12KV_3 nphases=3 units=km Rmatrix=[ 0.059356 | 0 0.059356 | 0 0 0.059356 ] Xmatrix=[ 0.045098 | 0 0.045098 | 0 0 0.045098 ] Cmatrix=[ 0 | 0 0 | 0 0 0 ]
New LineCode.350_AL_1PH_12KV_1 nphases=1 units=km Rmatrix=[ 0.012449 ] Xmatrix=[ 0.009458 ] Cmatrix=[ 0 ]
New LineCode.750_CLP_3PH_12KV_3 nphases=3 units=km Rmatrix=[ 0.010333 | 0 0.010333 | 0 0 0.010333 ] Xmatrix=[ 0.01269 | 0 0.01269 | 0 0 0.01269 ] Cmatrix=[ 0 | 0 0 | 0 0 0 ]
New LineCode.4/0_ACSR_3PH_4/0_ACSR_N_12KV_4 nphases=4 units=km Rmatrix=[ 0.036729 | 0 0.036729 | 0 0 0.036729 | 0 0 0 0.036729 ] Xmatrix=[ 0.046756 | 0 0.046756 | 0 0 0.046756 | 0 0 0 0.046756 ] Cmatrix=[ 0 | 0 0 | 0 0 0 | 0 0 0 0 ]
New LineCode.1/0_JCN_2PH_12KV_2 nphases=2 units=km Rmatrix=[ 0.003621 | 0 0.003621 ] Xmatrix=[ 0.001107 | 0 0.001107 ] Cmatrix=[ 0 | 0 0 ]
New LineCode.2_CLP_3PH_12KV_3 nphases=3 units=km Rmatrix=[ 0.038888 | 0 0.038888 | 0 0 0.038888 ] Xmatrix=[ 0.008197 | 0 0.008197 | 0 0 0.008197 ] Cmatrix=[ 0 | 0 0 | 0 0 0 ]
New LineCode.4_ACSR_3PH_12KV_3 nphases=3 units=km Rmatrix=[ 0.005018 | 0 0.005018 | 0 0 0.005018 ] Xmatrix=[ 0.001841 | 0 0.001841 | 0 0 0.001841 ] Cmatrix=[ 0 | 0 0 | 0 0 0 ]
New LineCode.4_ACSR_3PH_4_ACSR_N_12KV_4 nphases=4 units=km Rmatrix=[ 0.008368 | 0 0.008368 | 0 0 0.008368 | 0 0 0 0.008368 ] Xmatrix=[ 0.002815 | 0 0.002815 | 0 0 0.002815 | 0 0 0 0.002815 ] Cmatrix=[ 0 | 0 0 | 0 0 0 | 0 0 0 0 ]
New LineCode.1/0_CLP_1PH_12KV_1 nphases=1 units=km Rmatrix=[ 0.112584 ] Xmatrix=[ 0.034411 ] Cmatrix=[ 0 ]
New LineCode.2_AL_2PH_12KV_2 nphases=2 units=km Rmatrix=[ 0.089881 | 0 0.089881 ] Xmatrix=[ 0.018945 | 0 0.018945 ] Cmatrix=[ 0 | 0 0 ]
New LineCode.1/0_JCN_3PH_12KV_3 nphases=3 units=km Rmatrix=[ 0.00435 | 0 0.00435 | 0 0 0.00435 ] Xmatrix=[ 0.001329 | 0 0.001329 | 0 0 0.001329 ] Cmatrix=[ 0 | 0 0 | 0 0 0 ]
New LineCode.2_CLP_1PH_12KV_1 nphases=1 units=km Rmatrix=[ 0.072847 ] Xmatrix=[ 0.015355 ] Cmatrix=[ 0 ]
New LineCode.1000_JCN_3PH_12KV_3 nphases=3 units=km Rmatrix=[ 0.01746 | 0 0.01746 | 0 0 0.01746 ] Xmatrix=[ 0.026429 | 0 0.026429 | 0 0 0.026429 ] Cmatrix=[ 0 | 0 0 | 0 0 0 ]
New LineCode.2_CLP_2PH_12KV_2 nphases=2 units=km Rmatrix=[ 0.063901 | 0 0.063901 ] Xmatrix=[ 0.013469 | 0 0.013469 ] Cmatrix=[ 0 | 0 0 ]
New LineCode.336_ACSR_3PH_336_ACSR_N_12KV_4 nphases=4 units=km Rmatrix=[ 0.015032 | 0 0.015032 | 0 0 0.015032 | 0 0 0 0.015032 ] Xmatrix=[ 0.029978 | 0 0.029978 | 0 0 0.029978 | 0 0 0 0.029978 ] Cmatrix=[ 0 | 0 0 | 0 0 0 | 0 0 0 0 ]
New LineCode.336_ACSR_3PH_336_ACSR_N_12KV_3 nphases=3 units=km Rmatrix=[ 0.015032 | 0 0.015032 | 0 0 0.015032 ] Xmatrix=[ 0.029978 | 0 0.029978 | 0 0 0.029978 ] Cmatrix=[ 0 | 0 0 | 0 0 0 ]
New LineCode.4_ACSR_2PH_12KV_2 nphases=2 units=km Rmatrix=[ 0.139407 | 0 0.139407 ] Xmatrix=[ 0.051155 | 0 0.051155 ] Cmatrix=[ 0 | 0 0 ]
New LineCode.336_ACSR_3PH_12KV_3 nphases=3 units=km Rmatrix=[ 0.04375 | 0 0.04375 | 0 0 0.04375 ] Xmatrix=[ 0.097973 | 0 0.097973 | 0 0 0.097973 ] Cmatrix=[ 0 | 0 0 | 0 0 0 ]
New LineCode.336_ACSR_1PH_336_ACSR_N_12KV_3_N nphases=3 units=km Rmatrix=[ 0.001214 | 0 0.001214 | 0 0 0.001214 ] Xmatrix=[ 0.002421 | 0 0.002421 | 0 0 0.002421 ] Cmatrix=[ 0 | 0 0 | 0 0 0 ]
New LineCode.6_CU_2PH_12KV_2 nphases=2 units=km Rmatrix=[ 0.165186 | 0 0.165186 ] Xmatrix=[ 0.058551 | 0 0.058551 ] Cmatrix=[ 0 | 0 0 ]
New LineCode.4/0_ACSR_2PH_4/0_ACSR_N_12KV_3_N nphases=3 units=km Rmatrix=[ 0.001062 | 0 0.001062 | 0 0 0.001062 ] Xmatrix=[ 0.001352 | 0 0.001352 | 0 0 0.001352 ] Cmatrix=[ 0 | 0 0 | 0 0 0 ]
New LineCode.4/0_ACSR_2PH_12KV_2 nphases=2 units=km Rmatrix=[ 0.001792 | 0 0.001792 ] Xmatrix=[ 0.002533 | 0 0.002533 ] Cmatrix=[ 0 | 0 0 ]
New LineCode.4/0_ACSR_3PH_12KV_3 nphases=3 units=km Rmatrix=[ 0.074251 | 0 0.074251 | 0 0 0.074251 ] Xmatrix=[ 0.104935 | 0 0.104935 | 0 0 0.104935 ] Cmatrix=[ 0 | 0 0 | 0 0 0 ]
New LineCode.2_ACSR_3PH_12KV_3 nphases=3 units=km Rmatrix=[ 0.017158 | 0 0.017158 | 0 0 0.017158 ] Xmatrix=[ 0.009224 | 0 0.009224 | 0 0 0.009224 ] Cmatrix=[ 0 | 0 0 | 0 0 0 ]
New LineCode.1/0_ACSR_2PH_12KV_2 nphases=2 units=km Rmatrix=[ 0.029278 | 0 0.029278 ] Xmatrix=[ 0.023311 | 0 0.023311 ] Cmatrix=[ 0 | 0 0 ]
New LineCode.1/0_ACSR_1PH_1/0_ACSR_N_12KV_3_N nphases=3 units=km Rmatrix=[ 0.006164 | 0 0.006164 | 0 0 0.006164 ] Xmatrix=[ 0.004455 | 0 0.004455 | 0 0 0.004455 ] Cmatrix=[ 0 | 0 0 | 0 0 0 ]
New LineCode.4/0_ACSR_1PH_4/0_ACSR_N_12KV_3_N nphases=3 units=km Rmatrix=[ 0.00238 | 0 0.00238 | 0 0 0.00238 ] Xmatrix=[ 0.00303 | 0 0.00303 | 0 0 0.00303 ] Cmatrix=[ 0 | 0 0 | 0 0 0 ]
New LineCode.4/0_AL_1PH_12KV_1 nphases=1 units=km Rmatrix=[ 1e-05 ] Xmatrix=[ 1e-05 ] Cmatrix=[ 0 ]
New LineCode.4/0_AL_2PH_12KV_2 nphases=2 units=km Rmatrix=[ 1e-05 | 0 1e-05 ] Xmatrix=[ 1e-05 | 0 1e-05 ] Cmatrix=[ 0 | 0 0 ]
New LineCode.6_CU_1PH_12KV_1 nphases=1 units=km Rmatrix=[ 1e-05 ] Xmatrix=[ 1e-05 ] Cmatrix=[ 0 ]
New LineCode.2_JCN_2PH_12KV_2 nphases=2 units=km Rmatrix=[ 0.164751 | 0 0.164751 ] Xmatrix=[ 0.034726 | 0 0.034726 ] Cmatrix=[ 0 | 0 0 ]
New LineCode.1/0_ACSR_3PH_1/0_ACSR_N_12KV_3 nphases=3 units=km Rmatrix=[ 0.019121 | 0 0.019121 | 0 0 0.019121 ] Xmatrix=[ 0.015224 | 0 0.015224 | 0 0 0.015224 ] Cmatrix=[ 0 | 0 0 | 0 0 0 ]
New LineCode.1/0_JCN_1PH_12KV_1 nphases=1 units=km Rmatrix=[ 0.001018 ] Xmatrix=[ 0.000311 ] Cmatrix=[ 0 ]
New LineCode.4_ACSR_2PH_4_ACSR_N_12KV_3_N nphases=3 units=km Rmatrix=[ 0.044321 | 0 0.044321 | 0 0 0.044321 ] Xmatrix=[ 0.014908 | 0 0.014908 | 0 0 0.014908 ] Cmatrix=[ 0 | 0 0 | 0 0 0 ]
New LineCode.1/0_ACSR_3PH_1/0_ACSR_N_12KV_4 nphases=4 units=km Rmatrix=[ 0.019121 | 0 0.019121 | 0 0 0.019121 | 0 0 0 0.019121 ] Xmatrix=[ 0.015224 | 0 0.015224 | 0 0 0.015224 | 0 0 0 0.015224 ] Cmatrix=[ 0 | 0 0 | 0 0 0 | 0 0 0 0 ]
New LineCode.2_ACSR_1PH_2_ACSR_N_12KV_3_N nphases=3 units=km Rmatrix=[ 0.016542 | 0 0.016542 | 0 0 0.016542 ] Xmatrix=[ 0.008014 | 0 0.008014 | 0 0 0.008014 ] Cmatrix=[ 0 | 0 0 | 0 0 0 ]
New LineCode.6_CU_3PH_6_CU_N_12KV_4 nphases=4 units=km Rmatrix=[ 0.082957 | 0 0.082957 | 0 0 0.082957 | 0 0 0 0.082957 ] Xmatrix=[ 0.026791 | 0 0.026791 | 0 0 0.026791 | 0 0 0 0.026791 ] Cmatrix=[ 0 | 0 0 | 0 0 0 | 0 0 0 0 ]
New LineCode.6_CU_1PH_6_CU_N_12KV_3_N nphases=3 units=km Rmatrix=[ 0.002733 | 0 0.002733 | 0 0 0.002733 ] Xmatrix=[ 0.000883 | 0 0.000883 | 0 0 0.000883 ] Cmatrix=[ 0 | 0 0 | 0 0 0 ]
New LineCode.4_ACSR_1PH_4_ACSR_N_12KV_3_N nphases=3 units=km Rmatrix=[ 0.006704 | 0 0.006704 | 0 0 0.006704 ] Xmatrix=[ 0.002255 | 0 0.002255 | 0 0 0.002255 ] Cmatrix=[ 0 | 0 0 | 0 0 0 ]
New LineCode.6_CU_3PH_12KV_3 nphases=3 units=km Rmatrix=[ 0.005895 | 0 0.005895 | 0 0 0.005895 ] Xmatrix=[ 0.002089 | 0 0.002089 | 0 0 0.002089 ] Cmatrix=[ 0 | 0 0 | 0 0 0 ]

! Lines
New Line.GS1457-3$J716-1P phases=3 Bus1=103224992.1.2.3 Bus2=312573149.1.2.3 LineCode=1/0_CLP_3PH_12KV_3 Length=0.066848 units=km
New Line.GS1457-4$GS1456-1 phases=3 Bus1=103225000.1.2.3 Bus2=103225840.1.2.3 LineCode=1000_CLP_3PH_12KV_3 Length=2.7007 units=km
New Line.GS1456-2$2268094E phases=3 Bus1=103225848.1.2.3 Bus2=28256921.1.2.3 LineCode=1000_CLP_3PH_12KV_3 Length=0.021384 units=km
New Line.J716-4P$312573451 phases=3 Bus1=312573165.1.2.3 Bus2=312573453.1.2.3 LineCode=1/0_CLP_3PH_12KV_3 Length=0.097063 units=km
New Line.312573451$J837-1P phases=3 Bus1=312573454.1.2.3 Bus2=312573269.1.2.3 LineCode=1/0_CLP_3PH_12KV_3 Length=0.001939 units=km
New Line.ND28334092$BF00591 phases=3 Bus1=28334092.1.2.3 Bus2=207638659.1.2.3 LineCode=1/0_ACSR_3PH_12KV_3 Length=0.050078 units=km
New Line.J837-2P$312573478 phases=3 Bus1=312573285.1.2.3 Bus2=312573481.1.2.3 LineCode=1/0_CLP_3PH_12KV_3 Length=0.001583 units=km
New Line.BF00591$1917543E phases=3 Bus1=207638660.1.2.3 Bus2=28257044.1.2.3 LineCode=1/0_ACSR_3PH_12KV_3 Length=0.008503 units=km
New Line.312573478$312573503 phases=3 Bus1=312573480.1.2.3 Bus2=312573505.1.2.3 LineCode=1/0_CLP_3PH_12KV_3 Length=0.084761 units=km
New Line.312573503$P5805838-1 phases=3 Bus1=312573506.1.2.3 Bus2=312573401.1.2.3 LineCode=1/0_CLP_3PH_12KV_3 Length=0.002157 units=km
New Line.208198995$610E phases=3 Bus1=28257132.1.2.3 Bus2=208198997.1.2.3 LineCode=1/0_AL_3PH_12KV_3 Length=0.063595 units=km
New Line.2268305E$P5011395-1 phases=3 Bus1=28257145.1.2.3 Bus2=28296824.1.2.3 LineCode=350_AL_3PH_12KV_3 Length=0.032895 units=km
New Line.208198995$208199022 phases=3 Bus1=208198998.1.2.3 Bus2=208199025.1.2.3 LineCode=1/0_AL_3PH_12KV_3 Length=0.014989 units=km
New Line.B5308925-1$2268253E phases=1 Bus1=28257158.1 Bus2=28258629.1 LineCode=350_AL_1PH_12KV_1 Length=0.070651 units=km
New Line.P5011238-1$208199022 phases=3 Bus1=208199024.1.2.3 Bus2=154137561.1.2.3 LineCode=1/0_AL_3PH_12KV_3 Length=0.057085 units=km
New Line.946E$GS1409-2 phases=3 Bus1=106599292.1.2.3 Bus2=106599359.1.2.3 LineCode=750_CLP_3PH_12KV_3 Length=0.091825 units=km
New Line.083E$GS1409-3 phases=3 Bus1=106599367.1.2.3 Bus2=106599441.1.2.3 LineCode=750_CLP_3PH_12KV_3 Length=0.049895 units=km
New Line.GS1409-1$GS1408-3 phases=3 Bus1=106599351.1.2.3 Bus2=106599626.1.2.3 LineCode=750_CLP_3PH_12KV_3 Length=0.759748 units=km
New Line.4201817E$4201819E phases=3 Bus1=28293442.1.2.3 Bus2=28293472.1.2.3 LineCode=750_CLP_3PH_12KV_3 Length=0.173337 units=km
New Line.4548362E$ND106599469 phases=4 Bus1=106599469.0.1.2.3 Bus2=147974593.0.1.2.3 LineCode=4/0_ACSR_3PH_4/0_ACSR_N_12KV_4 Length=0.006349 units=km
New Line.232E$GS1408-2 phases=3 Bus1=106599618.1.2.3 Bus2=106599532.1.2.3 LineCode=750_CLP_3PH_12KV_3 Length=0.002365 units=km
New Line.GS1408-1$078E phases=3 Bus1=106599610.1.2.3 Bus2=106599700.1.2.3 LineCode=750_CLP_3PH_12KV_3 Length=0.002365 units=km
New Line.4003901E$PMH2054-2 phases=3 Bus1=28294137.1.2.3 Bus2=28294177.1.2.3 LineCode=350_AL_3PH_12KV_3 Length=0.267317 units=km
New Line.4942871E$PME2055-2 phases=3 Bus1=28257720.1.2.3 Bus2=28294691.1.2.3 LineCode=350_AL_3PH_12KV_3 Length=0.196585 units=km
New Line.FD33259$238066612 phases=2 Bus1=238066312.2.3 Bus2=238066614.2.3 LineCode=1/0_JCN_2PH_12KV_2 Length=0.150739 units=km
New Line.PMH2054-3$ND28333269 phases=1 Bus1=28294159.1 Bus2=28333269.1 LineCode=350_AL_1PH_12KV_1 Length=0.030628 units=km
New Line.PME3015-1$238066612 phases=2 Bus1=238066615.2.3 Bus2=238066363.2.3 LineCode=1/0_JCN_2PH_12KV_2 Length=0.00512 units=km
New Line.ND28333269$P5376505-1 phases=1 Bus1=28333269.1 Bus2=28256852.1 LineCode=350_AL_1PH_12KV_1 Length=0.06537 units=km
New Line.P5315641-1$ND28333269 phases=1 Bus1=28333269.1 Bus2=28293924.1 LineCode=350_AL_1PH_12KV_1 Length=0.061097 units=km
New Line.PMH2054-1$PMH2055-1 phases=3 Bus1=28294186.1.2.3 Bus2=28294700.1.2.3 LineCode=350_AL_3PH_12KV_3 Length=0.123544 units=km
New Line.PMH2055-3$ND28333435 phases=1 Bus1=28294673.3 Bus2=28333435.3 LineCode=350_AL_1PH_12KV_1 Length=0.010204 units=km
New Line.2268240E$ND51830433 phases=3 Bus1=51807779.1.2.3 Bus2=51830433.1.2.3 LineCode=2_CLP_3PH_12KV_3 Length=0.140506 units=km
New Line.ND106493567$1571298E phases=3 Bus1=106493567.1.2.3 Bus2=106493545.1.2.3 LineCode=4_ACSR_3PH_12KV_3 Length=0.015914 units=km
New Line.PME2055-4$J108-1P phases=3 Bus1=28294682.1.2.3 Bus2=204416895.1.2.3 LineCode=2_CLP_3PH_12KV_3 Length=0.025698 units=km
New Line.ND28333435$P5376507-1 phases=1 Bus1=28333435.3 Bus2=28294379.3 LineCode=350_AL_1PH_12KV_1 Length=0.044899 units=km
New Line.ND28333435$ND28333701 phases=1 Bus1=28333435.3 Bus2=28333701.3 LineCode=350_AL_1PH_12KV_1 Length=0.042145 units=km
New Line.ND51830433$P5464211-1 phases=3 Bus1=51830433.1.2.3 Bus2=51807795.1.2.3 LineCode=2_CLP_3PH_12KV_3 Length=0.169728 units=km
New Line.ND51830433$P5464234-1 phases=3 Bus1=51830433.1.2.3 Bus2=51807846.1.2.3 LineCode=2_CLP_3PH_12KV_3 Length=0.080813 units=km
New Line.P5315647-1$ND28333701 phases=1 Bus1=28333701.3 Bus2=28294451.3 LineCode=350_AL_1PH_12KV_1 Length=0.024612 units=km
New Line.P5315648-2$ND28333701 phases=1 Bus1=28333701.3 Bus2=28294532.3 LineCode=350_AL_1PH_12KV_1 Length=0.011441 units=km
New Line.PH227E$ND105230732 phases=4 Bus1=105230732.0.1.2.3 Bus2=105230709.0.1.2.3 LineCode=4_ACSR_3PH_4_ACSR_N_12KV_4 Length=0.006895 units=km
New Line.1571298E$P5601634-1 phases=3 Bus1=106493546.1.2.3 Bus2=106493582.1.2.3 LineCode=2_CLP_3PH_12KV_3 Length=0.053299 units=km
New Line.P5315642-1$P5315641-2 phases=1 Bus1=28293933.1 Bus2=28293996.1 LineCode=350_AL_1PH_12KV_1 Length=0.038714 units=km
New Line.P5376505-2$ND28333292 phases=1 Bus1=28256861.1 Bus2=28333292.1 LineCode=350_AL_1PH_12KV_1 Length=0.026264 units=km
New Line.2268229E$54157559 phases=3 Bus1=54142445.1.2.3 Bus2=54157561.1.2.3 LineCode=2_CLP_3PH_12KV_3 Length=0.051134 units=km
New Line.PME3015-2$238066654 phases=2 Bus1=238066354.2.3 Bus2=238066657.2.3 LineCode=1/0_JCN_2PH_12KV_2 Length=0.00271 units=km
New Line.FD31124$B5171101-1 phases=1 Bus1=28257204.2 Bus2=28258387.2 LineCode=1/0_CLP_1PH_12KV_1 Length=0.20694 units=km
New Line.FD31125$B5171105-2 phases=1 Bus1=28257194.1 Bus2=28258540.1 LineCode=1/0_CLP_1PH_12KV_1 Length=0.159701 units=km
New Line.P5376506-1$ND28333292 phases=1 Bus1=28333292.1 Bus2=28293636.1 LineCode=350_AL_1PH_12KV_1 Length=0.110972 units=km
New Line.P5376504-1$ND28333292 phases=1 Bus1=28333292.1 Bus2=28293852.1 LineCode=350_AL_1PH_12KV_1 Length=0.06286 units=km
New Line.P5376507-2$P5376503-1 phases=1 Bus1=28294388.3 Bus2=28294307.3 LineCode=350_AL_1PH_12KV_1 Length=0.086082 units=km
New Line.148041053$PH227E phases=3 Bus1=105230710.1.2.3 Bus2=148041055.1.2.3 LineCode=2_CLP_3PH_12KV_3 Length=0.249971 units=km
New Line.P5315649-2$P5315648-1 phases=1 Bus1=28294523.3 Bus2=28294604.3 LineCode=350_AL_1PH_12KV_1 Length=0.043335 units=km
New Line.J108-2P$ND28335392 phases=3 Bus1=204416919.1.2.3 Bus2=28335392.1.2.3 LineCode=2_CLP_3PH_12KV_3 Length=0.036392 units=km
New Line.1406824E$BS1796-1 phases=2 Bus1=54130599.1.3 Bus2=54131942.1.3 LineCode=2_AL_2PH_12KV_2 Length=0.055853 units=km
New Line.54157559$P5506238-1 phases=3 Bus1=54157562.1.2.3 Bus2=54142461.1.2.3 LineCode=2_CLP_3PH_12KV_3 Length=0.002577 units=km
New Line.ND143681786$4691021E phases=3 Bus1=143681786.1.2.3 Bus2=143681780.1.2.3 LineCode=4_ACSR_3PH_12KV_3 Length=0.027668 units=km
New Line.ND28335392$P5432109-B phases=3 Bus1=28335392.1.2.3 Bus2=152493757.1.2.3 LineCode=2_CLP_3PH_12KV_3 Length=0.086285 units=km
New Line.J108-3P$204364792 phases=3 Bus1=204416903.1.2.3 Bus2=204364794.1.2.3 LineCode=1/0_JCN_3PH_12KV_3 Length=0.045673 units=km
New Line.238066654$238066681 phases=2 Bus1=238066656.2.3 Bus2=238066683.2.3 LineCode=1/0_JCN_2PH_12KV_2 Length=0.009646 units=km
New Line.ND28335392$P5432108-1 phases=3 Bus1=28335392.1.2.3 Bus2=28256804.1.2.3 LineCode=2_CLP_3PH_12KV_3 Length=0.010424 units=km
New Line.P5315643-1$P5315642-2 phases=1 Bus1=28294005.1 Bus2=28294068.1 LineCode=350_AL_1PH_12KV_1 Length=0.060339 units=km
New Line.148041053$J402-3P phases=3 Bus1=148041056.1.2.3 Bus2=107942751.1.2.3 LineCode=2_CLP_3PH_12KV_3 Length=0.002113 units=km
New Line.B5171101-2$B5171102-2 phases=1 Bus1=28258396.2 Bus2=28258321.2 LineCode=1/0_CLP_1PH_12KV_1 Length=0.066515 units=km
New Line.B5171105-1$B5171106-2 phases=1 Bus1=28258531.1 Bus2=28258468.1 LineCode=1/0_CLP_1PH_12KV_1 Length=0.10885 units=km
New Line.P5376504-2$P5376501-1 phases=1 Bus1=28293861.1 Bus2=28293780.1 LineCode=350_AL_1PH_12KV_1 Length=0.090865 units=km
New Line.BS1796-1$B5301225-1 phases=2 Bus1=54131941.1.3 Bus2=54132135.1.3 LineCode=2_AL_2PH_12KV_2 Length=0.037604 units=km
New Line.B5301406-2$FD31067 phases=1 Bus1=54141332.3 Bus2=54132504.3 LineCode=2_CLP_1PH_12KV_1 Length=0.115131 units=km
New Line.B5301407-1$FD31066 phases=1 Bus1=54141319.2 Bus2=54132855.2 LineCode=2_CLP_1PH_12KV_1 Length=0.032454 units=km
New Line.4199311E$GS1190-2 phases=3 Bus1=54141143.1.2.3 Bus2=178008422.1.2.3 LineCode=1000_JCN_3PH_12KV_3 Length=0.180393 units=km
New Line.J776-1P$204364792 phases=3 Bus1=204364795.1.2.3 Bus2=204364475.1.2.3 LineCode=1/0_JCN_3PH_12KV_3 Length=0.001206 units=km
New Line.238066681$P5770735-1 phases=2 Bus1=238066684.2.3 Bus2=238066465.2.3 LineCode=1/0_JCN_2PH_12KV_2 Length=0.00311 units=km
New Line.P5432109-A$P5432110-1 phases=2 Bus1=152493739.1.2 Bus2=28293505.1.2 LineCode=2_CLP_2PH_12KV_2 Length=0.057131 units=km
New Line.B5171102-1$B5171103-2 phases=1 Bus1=28258312.2 Bus2=28258249.2 LineCode=1/0_CLP_1PH_12KV_1 Length=0.076476 units=km
New Line.P5376501-2$P5376502-1 phases=1 Bus1=28293789.1 Bus2=28293708.1 LineCode=350_AL_1PH_12KV_1 Length=0.056065 units=km
New Line.B5301225-2$B5301224-1 phases=2 Bus1=54132144.1.3 Bus2=54131991.1.3 LineCode=2_AL_2PH_12KV_2 Length=0.080357 units=km
New Line.B5301405-2$B5301406-1 phases=1 Bus1=54132495.3 Bus2=54132576.3 LineCode=2_CLP_1PH_12KV_1 Length=0.006986 units=km
New Line.B5301408-1$B5301407-2 phases=1 Bus1=54132864.2 Bus2=54132927.2 LineCode=2_CLP_1PH_12KV_1 Length=0.00298 units=km
New Line.J402-2P$148041005 phases=3 Bus1=107942759.1.2.3 Bus2=148041008.1.2.3 LineCode=2_CLP_3PH_12KV_3 Length=0.001529 units=km
New Line.P5770735-2$238066706 phases=2 Bus1=238066474.2.3 Bus2=238066709.2.3 LineCode=1/0_JCN_2PH_12KV_2 Length=0.001803 units=km
New Line.148041086$J402-1P phases=3 Bus1=107942743.1.2.3 Bus2=148041089.1.2.3 LineCode=2_CLP_3PH_12KV_3 Length=0.001732 units=km
New Line.GS4010-4$GS1190-1 phases=3 Bus1=178008413.1.2.3 Bus2=54112921.1.2.3 LineCode=1000_JCN_3PH_12KV_3 Length=0.087071 units=km
New Line.2268314E$2268094E phases=4 Bus1=28256920.0.1.2.3 Bus2=101672592.0.1.2.3 LineCode=336_ACSR_3PH_336_ACSR_N_12KV_4 Length=0.048824 units=km
New Line.2268311E$2268314E phases=4 Bus1=101672592.0.1.2.3 Bus2=101672693.0.1.2.3 LineCode=336_ACSR_3PH_336_ACSR_N_12KV_4 Length=0.134615 units=km
New Line.2268310E$2268311E phases=4 Bus1=101672693.0.1.2.3 Bus2=28258716.0.1.2.3 LineCode=336_ACSR_3PH_336_ACSR_N_12KV_4 Length=0.069009 units=km
New Line.2268309E$2268310E phases=4 Bus1=28258716.0.1.2.3 Bus2=28257121.0.1.2.3 LineCode=336_ACSR_3PH_336_ACSR_N_12KV_4 Length=0.061537 units=km
New Line.ND28334092$2268309E phases=4 Bus1=28257121.0.1.2.3 Bus2=28334092.0.1.2.3 LineCode=336_ACSR_3PH_336_ACSR_N_12KV_4 Length=0.027666 units=km
New Line.ND28333479$ND28334092 phases=3 Bus1=28334092.1.2.3 Bus2=28333479.1.2.3 LineCode=336_ACSR_3PH_336_ACSR_N_12KV_3 Length=0.018034 units=km
New Line.2268307E$ND28333479 phases=4 Bus1=28333479.0.1.2.3 Bus2=28258745.0.1.2.3 LineCode=336_ACSR_3PH_336_ACSR_N_12KV_4 Length=0.053277 units=km
New Line.ND207638649$2268307E phases=4 Bus1=28258745.0.1.2.3 Bus2=207638649.0.1.2.3 LineCode=336_ACSR_3PH_336_ACSR_N_12KV_4 Length=0.083848 units=km
New Line.1196286E$ND207638649 phases=2 Bus1=207638649.1.3 Bus2=28257094.1.3 LineCode=4_ACSR_2PH_12KV_2 Length=0.029635 units=km
New Line.1917543E$610E phases=3 Bus1=28257044.1.2.3 Bus2=28257131.1.2.3 LineCode=1/0_ACSR_3PH_12KV_3 Length=0.037427 units=km
New Line.ND28379828$ND207638649 phases=4 Bus1=207638649.0.1.2.3 Bus2=28379828.0.1.2.3 LineCode=336_ACSR_3PH_336_ACSR_N_12KV_4 Length=0.045423 units=km
New Line.1196286E$1196287E phases=2 Bus1=28257094.1.3 Bus2=28257069.1.3 LineCode=4_ACSR_2PH_12KV_2 Length=0.046534 units=km
New Line.ND28379828$2268305E phases=3 Bus1=28379828.1.2.3 Bus2=28257144.1.2.3 LineCode=336_ACSR_3PH_12KV_3 Length=0.001987 units=km
New Line.2268304E$ND28379828 phases=4 Bus1=28379828.0.1.2.3 Bus2=28258774.0.1.2.3 LineCode=336_ACSR_3PH_336_ACSR_N_12KV_4 Length=0.03385 units=km
New Line.ND28335011$2268304E phases=4 Bus1=28258774.0.1.2.3 Bus2=28335011.0.1.2.3 LineCode=336_ACSR_3PH_336_ACSR_N_12KV_4 Length=0.075185 units=km
New Line.ND28335011$2268253E phases=3 Bus1=28335011.0.1.3 Bus2=28257157.0.1.3 LineCode=336_ACSR_1PH_336_ACSR_N_12KV_3_N Length=0.006506 units=km
New Line.ND28335011$PS0684 phases=4 Bus1=28335011.0.1.2.3 Bus2=28332665.0.1.2.3 LineCode=336_ACSR_3PH_336_ACSR_N_12KV_4 Length=0.083607 units=km
New Line.PS0684$ND106599319 phases=4 Bus1=105793655.0.1.2.3 Bus2=106599319.0.1.2.3 LineCode=336_ACSR_3PH_336_ACSR_N_12KV_4 Length=0.046117 units=km
New Line.ND106599319$946E phases=4 Bus1=106599319.0.1.2.3 Bus2=106599291.0.1.2.3 LineCode=336_ACSR_3PH_336_ACSR_N_12KV_4 Length=0.046117 units=km
New Line.ND106599319$1629950E phases=4 Bus1=106599319.0.1.2.3 Bus2=139010231.0.1.2.3 LineCode=336_ACSR_3PH_336_ACSR_N_12KV_4 Length=0.059023 units=km
New Line.1629950E$ND149653022 phases=4 Bus1=139010231.0.1.2.3 Bus2=149653022.0.1.2.3 LineCode=336_ACSR_3PH_336_ACSR_N_12KV_4 Length=0.02347 units=km
New Line.ND149653022$ND28333945 phases=4 Bus1=149653022.0.1.2.3 Bus2=28333945.0.1.2.3 LineCode=336_ACSR_3PH_336_ACSR_N_12KV_4 Length=0.071496 units=km
New Line.ND28333945$4242496E phases=4 Bus1=28333945.0.1.2.3 Bus2=28256790.0.1.2.3 LineCode=336_ACSR_3PH_336_ACSR_N_12KV_4 Length=0.065106 units=km
New Line.ND28333945$BF66880 phases=2 Bus1=28333945.1.2 Bus2=28332548.1.2 LineCode=4_ACSR_2PH_12KV_2 Length=0.028248 units=km
New Line.4242496E$157644E phases=4 Bus1=28256790.0.1.2.3 Bus2=28293331.0.1.2.3 LineCode=336_ACSR_3PH_336_ACSR_N_12KV_4 Length=0.063891 units=km
New Line.BF66880$198811E phases=2 Bus1=28332547.1.2 Bus2=28293254.1.2 LineCode=6_CU_2PH_12KV_2 Length=0.069473 units=km
New Line.157644E$ND28335033 phases=4 Bus1=28293331.0.1.2.3 Bus2=28335033.0.1.2.3 LineCode=336_ACSR_3PH_336_ACSR_N_12KV_4 Length=0.069681 units=km
New Line.198811E$198809E phases=2 Bus1=28293254.1.2 Bus2=28293279.1.2 LineCode=6_CU_2PH_12KV_2 Length=0.111228 units=km
New Line.ND28335033$4201817E phases=4 Bus1=28335033.0.1.2.3 Bus2=28293441.0.1.2.3 LineCode=336_ACSR_3PH_336_ACSR_N_12KV_4 Length=0.029647 units=km
New Line.ND28335033$BF66881 phases=2 Bus1=28335033.1.2 Bus2=28332584.1.2 LineCode=4_ACSR_2PH_12KV_2 Length=0.005488 units=km
New Line.198809E$1298474E phases=2 Bus1=28293279.1.2 Bus2=28293304.1.2 LineCode=4_ACSR_2PH_12KV_2 Length=0.085793 units=km
New Line.083E$ND106599469 phases=4 Bus1=106599440.0.1.2.3 Bus2=106599469.0.1.2.3 LineCode=4/0_ACSR_3PH_4/0_ACSR_N_12KV_4 Length=0.025457 units=km
New Line.BF66881$4190562E phases=2 Bus1=28332583.1.2 Bus2=28293433.1.2 LineCode=4_ACSR_2PH_12KV_2 Length=0.050763 units=km
New Line.PS0963$ND106599469 phases=4 Bus1=106599469.0.1.2.3 Bus2=28332631.0.1.2.3 LineCode=4/0_ACSR_3PH_4/0_ACSR_N_12KV_4 Length=0.060304 units=km
New Line.4190562E$ND28333443 phases=2 Bus1=28293433.1.2 Bus2=28333443.1.2 LineCode=4_ACSR_2PH_12KV_2 Length=0.031842 units=km
New Line.ND28333443$4241821E phases=2 Bus1=28333443.1.2 Bus2=28293408.1.2 LineCode=4_ACSR_2PH_12KV_2 Length=0.113703 units=km
New Line.4201819E$ND28333471 phases=4 Bus1=28293471.0.1.2.3 Bus2=28333471.0.1.2.3 LineCode=336_ACSR_3PH_336_ACSR_N_12KV_4 Length=0.012085 units=km
New Line.ND28333443$ND28334630 phases=2 Bus1=28333443.1.2 Bus2=28334630.1.2 LineCode=4_ACSR_2PH_12KV_2 Length=0.031842 units=km
New Line.4548362E$ND28335172 phases=4 Bus1=147974593.0.1.2.3 Bus2=28335172.0.1.2.3 LineCode=4/0_ACSR_3PH_4/0_ACSR_N_12KV_4 Length=0.043792 units=km
New Line.4420967E$PS0963 phases=4 Bus1=28332630.0.1.2.3 Bus2=28257360.0.1.2.3 LineCode=4/0_ACSR_3PH_4/0_ACSR_N_12KV_4 Length=0.108432 units=km
New Line.ND28335172$2016946E phases=3 Bus1=28335172.0.1.2 Bus2=28257677.0.1.2 LineCode=4/0_ACSR_2PH_4/0_ACSR_N_12KV_3_N Length=0.063411 units=km
New Line.ND28335172$2268250E phases=4 Bus1=28335172.0.1.2.3 Bus2=28257709.0.1.2.3 LineCode=4/0_ACSR_3PH_4/0_ACSR_N_12KV_4 Length=0.019619 units=km
New Line.ND28334630$1181867E phases=2 Bus1=28334630.1.2 Bus2=28293358.1.2 LineCode=4_ACSR_2PH_12KV_2 Length=0.088992 units=km
New Line.ND28334630$4210790E phases=2 Bus1=28334630.1.2 Bus2=28293383.1.2 LineCode=4_ACSR_2PH_12KV_2 Length=0.094117 units=km
New Line.ND28333471$4003901E phases=4 Bus1=28333471.0.1.2.3 Bus2=28294136.0.1.2.3 LineCode=336_ACSR_3PH_336_ACSR_N_12KV_4 Length=0.012085 units=km
New Line.ND28333471$ND28334385 phases=4 Bus1=28333471.0.1.2.3 Bus2=28334385.0.1.2.3 LineCode=336_ACSR_3PH_336_ACSR_N_12KV_4 Length=0.042669 units=km
New Line.ND106599560$232E phases=4 Bus1=106599531.0.1.2.3 Bus2=106599560.0.1.2.3 LineCode=4/0_ACSR_3PH_4/0_ACSR_N_12KV_4 Length=0.00232 units=km
New Line.ND246185181$4420967E phases=4 Bus1=28257360.0.1.2.3 Bus2=246185181.0.1.2.3 LineCode=4/0_ACSR_3PH_4/0_ACSR_N_12KV_4 Length=0.048999 units=km
New Line.ND28334385$4942871E phases=3 Bus1=28334385.1.2.3 Bus2=28257719.1.2.3 LineCode=336_ACSR_3PH_12KV_3 Length=0.030833 units=km
New Line.ND28334385$1026860E phases=4 Bus1=28334385.0.1.2.3 Bus2=28294832.0.1.2.3 LineCode=336_ACSR_3PH_336_ACSR_N_12KV_4 Length=0.030833 units=km
New Line.2268250E$PS0598 phases=4 Bus1=28257709.0.1.2.3 Bus2=51810289.0.1.2.3 LineCode=4/0_ACSR_3PH_4/0_ACSR_N_12KV_4 Length=0.118245 units=km
New Line.1026860E$RCS0614 phases=4 Bus1=28294832.0.1.2.3 Bus2=128914479.0.1.2.3 LineCode=336_ACSR_3PH_336_ACSR_N_12KV_4 Length=0.080216 units=km
New Line.2268234E$ND106599560 phases=4 Bus1=106599560.0.1.2.3 Bus2=149086711.0.1.2.3 LineCode=4/0_ACSR_3PH_4/0_ACSR_N_12KV_4 Length=0.059356 units=km
New Line.078E$ND192917747 phases=3 Bus1=106599699.1.2.3 Bus2=192917747.1.2.3 LineCode=336_ACSR_3PH_12KV_3 Length=0.181622 units=km
New Line.FD33259$ND246185181 phases=4 Bus1=246185181.0.1.2.3 Bus2=238066311.0.1.2.3 LineCode=4/0_ACSR_3PH_4/0_ACSR_N_12KV_4 Length=0.003672 units=km
New Line.ND246185181$1512155E phases=2 Bus1=246185181.1.3 Bus2=28257333.1.3 LineCode=4/0_ACSR_2PH_12KV_2 Length=0.183399 units=km
New Line.ND28333284$ND246185181 phases=4 Bus1=246185181.0.1.2.3 Bus2=28333284.0.1.2.3 LineCode=4/0_ACSR_3PH_4/0_ACSR_N_12KV_4 Length=0.051536 units=km
New Line.ND106599560$PS0146 phases=4 Bus1=106599560.0.1.2.3 Bus2=51810133.0.1.2.3 LineCode=4/0_ACSR_3PH_4/0_ACSR_N_12KV_4 Length=0.165032 units=km
New Line.1512155E$830042E phases=2 Bus1=28257333.1.3 Bus2=28257308.1.3 LineCode=4/0_ACSR_2PH_12KV_2 Length=0.133474 units=km
New Line.ND28333284$1609576E phases=2 Bus1=28333284.2.3 Bus2=28258612.2.3 LineCode=4/0_ACSR_2PH_12KV_2 Length=0.005315 units=km
New Line.ND28332536$ND28333284 phases=4 Bus1=28333284.0.1.2.3 Bus2=28332536.0.1.2.3 LineCode=4/0_ACSR_3PH_4/0_ACSR_N_12KV_4 Length=0.057492 units=km
New Line.2268247E$PS0598 phases=3 Bus1=51810288.1.2.3 Bus2=51789876.1.2.3 LineCode=4/0_ACSR_3PH_12KV_3 Length=0.09008 units=km
New Line.ND192917747$ND51811335 phases=3 Bus1=192917747.1.2.3 Bus2=51811335.1.2.3 LineCode=336_ACSR_3PH_12KV_3 Length=0.128132 units=km
New Line.ND51828664$ND192917747 phases=3 Bus1=192917747.1.2.3 Bus2=51828664.1.2.3 LineCode=336_ACSR_3PH_12KV_3 Length=0.032131 units=km
New Line.ND54173314$2268234E phases=4 Bus1=149086711.0.1.2.3 Bus2=54173314.0.1.2.3 LineCode=4/0_ACSR_3PH_4/0_ACSR_N_12KV_4 Length=0.079158 units=km
New Line.ND207542099$PS0146 phases=3 Bus1=51810132.1.2.3 Bus2=207542099.1.2.3 LineCode=4_ACSR_3PH_12KV_3 Length=0.063827 units=km
New Line.ND28333908$ND28332536 phases=4 Bus1=28332536.0.1.2.3 Bus2=28333908.0.1.2.3 LineCode=4/0_ACSR_3PH_4/0_ACSR_N_12KV_4 Length=0.035996 units=km
New Line.ND51811335$2268241E phases=3 Bus1=51811335.1.2.3 Bus2=51789293.1.2.3 LineCode=4/0_ACSR_3PH_12KV_3 Length=0.044077 units=km
New Line.ND51811335$2268240E phases=3 Bus1=51811335.1.2.3 Bus2=51807778.1.2.3 LineCode=2_ACSR_3PH_12KV_3 Length=0.113314 units=km
New Line.ND51828664$BF31205 phases=2 Bus1=51828664.1.3 Bus2=51810091.1.3 LineCode=4_ACSR_2PH_12KV_2 Length=0.035876 units=km
New Line.ND51829806$ND51828664 phases=3 Bus1=51828664.1.2.3 Bus2=51829806.1.2.3 LineCode=336_ACSR_3PH_12KV_3 Length=0.065582 units=km
New Line.ND51830303$2268247E phases=3 Bus1=51789876.1.2.3 Bus2=51830303.1.2.3 LineCode=4/0_ACSR_3PH_12KV_3 Length=0.124338 units=km
New Line.2268233E$ND54173314 phases=2 Bus1=54173314.1.3 Bus2=54157408.1.3 LineCode=4_ACSR_2PH_12KV_2 Length=0.004824 units=km
New Line.RCS0731$ND54173314 phases=4 Bus1=54173314.0.1.2.3 Bus2=99361522.0.1.2.3 LineCode=336_ACSR_3PH_336_ACSR_N_12KV_4 Length=0.11182 units=km
New Line.ND106599723$ND51829806 phases=3 Bus1=51829806.1.2.3 Bus2=106599723.1.2.3 LineCode=4/0_ACSR_3PH_12KV_3 Length=0.093545 units=km
New Line.4420963E$ND28333908 phases=4 Bus1=28333908.0.1.2.3 Bus2=28256761.0.1.2.3 LineCode=336_ACSR_3PH_336_ACSR_N_12KV_4 Length=0.050227 units=km
New Line.ND28333908$1609574E phases=2 Bus1=28333908.1.2 Bus2=28258599.1.2 LineCode=4/0_ACSR_2PH_12KV_2 Length=0.050227 units=km
New Line.2268244E$ND51830303 phases=3 Bus1=51830303.1.2.3 Bus2=51789622.1.2.3 LineCode=4/0_ACSR_3PH_12KV_3 Length=0.055142 units=km
New Line.1571297E$ND207542099 phases=3 Bus1=207542099.1.2.3 Bus2=51796977.1.2.3 LineCode=336_ACSR_3PH_12KV_3 Length=0.12711 units=km
New Line.ND51829806$BF31199 phases=2 Bus1=51829806.1.3 Bus2=51810055.1.3 LineCode=4_ACSR_2PH_12KV_2 Length=0.024677 units=km
New Line.ND51830303$BF31202 phases=2 Bus1=51830303.2.3 Bus2=51810211.2.3 LineCode=4_ACSR_2PH_12KV_2 Length=0.051235 units=km
New Line.ND51830303$BF31203 phases=2 Bus1=51830303.2.3 Bus2=51810247.2.3 LineCode=4_ACSR_2PH_12KV_2 Length=0.051235 units=km
New Line.2268241E$ND51828919 phases=3 Bus1=51789293.1.2.3 Bus2=51828919.1.2.3 LineCode=4/0_ACSR_3PH_12KV_3 Length=0.098186 units=km
New Line.1571297E$ND106493567 phases=3 Bus1=51796977.1.2.3 Bus2=106493567.1.2.3 LineCode=336_ACSR_3PH_12KV_3 Length=0.229886 units=km
New Line.ND51828919$BF310175 phases=3 Bus1=51828919.1.2.3 Bus2=197361102.1.2.3 LineCode=1/0_ACSR_3PH_12KV_3 Length=0.001905 units=km
New Line.ND28333661$4420963E phases=4 Bus1=28256761.0.1.2.3 Bus2=28333661.0.1.2.3 LineCode=336_ACSR_3PH_336_ACSR_N_12KV_4 Length=0.044641 units=km