! OpenDSS script generated from multiconductor network
Clear

New Circuit.mc_network basekv=12.0 pu=1.000000 angle=0.00 frequency=60.0 phases=3 Mvasc3=143993 Mvasc1=47997.6
~ bus1=-8888882190986.1.2.3

! Line codes
New LineCode.1000_JCN_3PH_12KV_3 nphases=3 units=km Rmatrix=[ 0.022913 | 0 0.022913 | 0 0 0.022913 ] Xmatrix=[ 0.034683 | 0 0.034683 | 0 0 0.034683 ] Cmatrix=[ 0 | 0 0 | 0 0 0 ]
New LineCode.1/0_ACSR_3PH_12KV_3 nphases=3 units=km Rmatrix=[ 0.004763 | 0 0.004763 | 0 0 0.004763 ] Xmatrix=[ 0.003792 | 0 0.003792 | 0 0 0.003792 ] Cmatrix=[ 0 | 0 0 | 0 0 0 ]
New LineCode.2_AL_2PH_12KV_2 nphases=2 units=km Rmatrix=[ 0.080752 | 0 0.080752 ] Xmatrix=[ 0.017021 | 0 0.017021 ] Cmatrix=[ 0 | 0 0 ]
New LineCode.2_CLP_3PH_12KV_3 nphases=3 units=km Rmatrix=[ 0.08297 | 0 0.08297 | 0 0 0.08297 ] Xmatrix=[ 0.017489 | 0 0.017489 | 0 0 0.017489 ] Cmatrix=[ 0 | 0 0 | 0 0 0 ]
New LineCode.1/0_CLP_3PH_12KV_3 nphases=3 units=km Rmatrix=[ 0.0003 | 0 0.0003 | 0 0 0.0003 ] Xmatrix=[ 9.2e-05 | 0 9.2e-05 | 0 0 9.2e-05 ] Cmatrix=[ 0 | 0 0 | 0 0 0 ]
New LineCode.2_AL_3PH_12KV_3 nphases=3 units=km Rmatrix=[ 0.311809 | 0 0.311809 | 0 0 0.311809 ] Xmatrix=[ 0.065723 | 0 0.065723 | 0 0 0.065723 ] Cmatrix=[ 0 | 0 0 | 0 0 0 ]
New LineCode.4_ACSR_3PH_12KV_3 nphases=3 units=km Rmatrix=[ 0.241391 | 0 0.241391 | 0 0 0.241391 ] Xmatrix=[ 0.081194 | 0 0.081194 | 0 0 0.081194 ] Cmatrix=[ 0 | 0 0 | 0 0 0 ]
New LineCode.1000_CLP_3PH_12KV_3 nphases=3 units=km Rmatrix=[ 0.050221 | 0 0.050221 | 0 0 0.050221 ] Xmatrix=[ 0.07602 | 0 0.07602 | 0 0 0.07602 ] Cmatrix=[ 0 | 0 0 | 0 0 0 ]
New LineCode.750_CLP_3PH_12KV_3 nphases=3 units=km Rmatrix=[ 0.005001 | 0 0.005001 | 0 0 0.005001 ] Xmatrix=[ 0.006142 | 0 0.006142 | 0 0 0.006142 ] Cmatrix=[ 0 | 0 0 | 0 0 0 ]
New LineCode.350_CLP_3PH_12KV_3 nphases=3 units=km Rmatrix=[ 0.126336 | 0 0.126336 | 0 0 0.126336 ] Xmatrix=[ 0.095989 | 0 0.095989 | 0 0 0.095989 ] Cmatrix=[ 0 | 0 0 | 0 0 0 ]
New LineCode.2_JCN_3PH_12KV_3 nphases=3 units=km Rmatrix=[ 0.052187 | 0 0.052187 | 0 0 0.052187 ] Xmatrix=[ 0.011 | 0 0.011 | 0 0 0.011 ] Cmatrix=[ 0 | 0 0 | 0 0 0 ]
New LineCode.1/0_JCN_3PH_12KV_3 nphases=3 units=km Rmatrix=[ 0.072323 | 0 0.072323 | 0 0 0.072323 ] Xmatrix=[ 0.022105 | 0 0.022105 | 0 0 0.022105 ] Cmatrix=[ 0 | 0 0 | 0 0 0 ]
New LineCode.336_ACSR_3PH_336_ACSR_N_12KV_4 nphases=4 units=km Rmatrix=[ 0.163071 | 0 0.163071 | 0 0 0.163071 | 0 0 0 0.163071 ] Xmatrix=[ 0.3252 | 0 0.3252 | 0 0 0.3252 | 0 0 0 0.3252 ] Cmatrix=[ 0 | 0 0 | 0 0 0 | 0 0 0 0 ]
New LineCode.2_CLP_1PH_12KV_1 nphases=1 units=km Rmatrix=[ 0.073593 ] Xmatrix=[ 0.015512 ] Cmatrix=[ 0 ]
New LineCode.2_CLP_2PH_12KV_2 nphases=2 units=km Rmatrix=[ 0.176944 | 0 0.176944 ] Xmatrix=[ 0.037296 | 0 0.037296 ] Cmatrix=[ 0 | 0 0 ]
New LineCode.__1PH_12KV_1 nphases=1 units=km Rmatrix=[ 1e-05 ] Xmatrix=[ 1e-05 ] Cmatrix=[ 0 ]
New LineCode.1/0_JCN_1PH_12KV_1 nphases=1 units=km Rmatrix=[ 0.001466 ] Xmatrix=[ 0.000448 ] Cmatrix=[ 0 ]
New LineCode.2_JCN_2PH_12KV_2 nphases=2 units=km Rmatrix=[ 0.002316 | 0 0.002316 ] Xmatrix=[ 0.000488 | 0 0.000488 ] Cmatrix=[ 0 | 0 0 ]
New LineCode.__3PH_12KV_3 nphases=3 units=km Rmatrix=[ 1e-05 | 0 1e-05 | 0 0 1e-05 ] Xmatrix=[ 1e-05 | 0 1e-05 | 0 0 1e-05 ] Cmatrix=[ 0 | 0 0 | 0 0 0 ]
New LineCode.1/0_JCN_2PH_12KV_2 nphases=2 units=km Rmatrix=[ 0.015435 | 0 0.015435 ] Xmatrix=[ 0.004718 | 0 0.004718 ] Cmatrix=[ 0 | 0 0 ]
New LineCode.336_ACSR_3PH_12KV_3 nphases=3 units=km Rmatrix=[ 0.00201 | 0 0.00201 | 0 0 0.00201 ] Xmatrix=[ 0.004502 | 0 0.004502 | 0 0 0.004502 ] Cmatrix=[ 0 | 0 0 | 0 0 0 ]
New LineCode.4_ACSR_2PH_12KV_2 nphases=2 units=km Rmatrix=[ 0.131229 | 0 0.131229 ] Xmatrix=[ 0.048153 | 0 0.048153 ] Cmatrix=[ 0 | 0 0 ]
New LineCode.2_ACSR_3PH_12KV_3 nphases=3 units=km Rmatrix=[ 0.010263 | 0 0.010263 | 0 0 0.010263 ] Xmatrix=[ 0.005518 | 0 0.005518 | 0 0 0.005518 ] Cmatrix=[ 0 | 0 0 | 0 0 0 ]
New LineCode.653_ACSR_3PH_653_ACSR_N_12KV_4 nphases=4 units=km Rmatrix=[ 0.003499 | 0 0.003499 | 0 0 0.003499 | 0 0 0 0.003499 ] Xmatrix=[ 0.011897 | 0 0.011897 | 0 0 0.011897 | 0 0 0 0.011897 ] Cmatrix=[ 0 | 0 0 | 0 0 0 | 0 0 0 0 ]
New LineCode.1/0_ACSR_2PH_12KV_2 nphases=2 units=km Rmatrix=[ 0.074389 | 0 0.074389 ] Xmatrix=[ 0.059228 | 0 0.059228 ] Cmatrix=[ 0 | 0 0 ]
New LineCode.1/0_ACSR_3PH_1/0_ACSR_N_12KV_4 nphases=4 units=km Rmatrix=[ 0.051269 | 0 0.051269 | 0 0 0.051269 | 0 0 0 0.051269 ] Xmatrix=[ 0.037052 | 0 0.037052 | 0 0 0.037052 | 0 0 0 0.037052 ] Cmatrix=[ 0 | 0 0 | 0 0 0 | 0 0 0 0 ]
New LineCode.2_ACSR_2PH_12KV_2 nphases=2 units=km Rmatrix=[ 0.005597 | 0 0.005597 ] Xmatrix=[ 0.003009 | 0 0.003009 ] Cmatrix=[ 0 | 0 0 ]
New LineCode.2_ACSR_3PH_2_ACSR_N_12KV_4 nphases=4 units=km Rmatrix=[ 0.052556 | 0 0.052556 | 0 0 0.052556 | 0 0 0 0.052556 ] Xmatrix=[ 0.025463 | 0 0.025463 | 0 0 0.025463 | 0 0 0 0.025463 ] Cmatrix=[ 0 | 0 0 | 0 0 0 | 0 0 0 0 ]
New LineCode.350_JCN_3PH_12KV_3 nphases=3 units=km Rmatrix=[ 0.025432 | 0 0.025432 | 0 0 0.025432 ] Xmatrix=[ 0.019323 | 0 0.019323 | 0 0 0.019323 ] Cmatrix=[ 0 | 0 0 | 0 0 0 ]
New LineCode.1/0_CLP_2PH_12KV_2 nphases=2 units=km Rmatrix=[ 0.148312 | 0 0.148312 ] Xmatrix=[ 0.045331 | 0 0.045331 ] Cmatrix=[ 0 | 0 0 ]
New LineCode.1/0_AL_3PH_12KV_3 nphases=3 units=km Rmatrix=[ 0.071336 | 0 0.071336 | 0 0 0.071336 ] Xmatrix=[ 0.021804 | 0 0.021804 | 0 0 0.021804 ] Cmatrix=[ 0 | 0 0 | 0 0 0 ]
New LineCode.1/0_CLP_1PH_12KV_1 nphases=1 units=km Rmatrix=[ 0.002419 ] Xmatrix=[ 0.000739 ] Cmatrix=[ 0 ]
New LineCode.4_ACSR_3PH_12KV_4 nphases=4 units=km Rmatrix=[ 0.241391 | 0 0.241391 | 0 0 0.241391 | 0 0 0 0.241391 ] Xmatrix=[ 0.081194 | 0 0.081194 | 0 0 0.081194 | 0 0 0 0.081194 ] Cmatrix=[ 0 | 0 0 | 0 0 0 | 0 0 0 0 ]
New LineCode.4_ACSR_2PH_12KV_3_N nphases=3 units=km Rmatrix=[ 0.131229 | 0 0.131229 | 0 0 0.131229 ] Xmatrix=[ 0.048153 | 0 0.048153 | 0 0 0.048153 ] Cmatrix=[ 0 | 0 0 | 0 0 0 ]
New LineCode.1/0_ATW_3PH_12KV_3 nphases=3 units=km Rmatrix=[ 1e-05 | 0 1e-05 | 0 0 1e-05 ] Xmatrix=[ 1e-05 | 0 1e-05 | 0 0 1e-05 ] Cmatrix=[ 0 | 0 0 | 0 0 0 ]
New LineCode.1/0_ATW_2PH_12KV_2 nphases=2 units=km Rmatrix=[ 1e-05 | 0 1e-05 ] Xmatrix=[ 1e-05 | 0 1e-05 ] Cmatrix=[ 0 | 0 0 ]

! Lines
New Line.GS1726-4$GS1351-2 phases=3 Bus1=236046173.1.2.3 Bus2=241821555.1.2.3 LineCode=1000_JCN_3PH_12KV_3 Length=0.402441 units=km
New Line.PH891$ND251264867 phases=3 Bus1=251264867.1.2.3 Bus2=251264844.1.2.3 LineCode=1/0_ACSR_3PH_12KV_3 Length=0.005025 units=km
New Line.ND26485996$26400627 phases=2 Bus1=26485996.1.2 Bus2=26400629.1.2 LineCode=2_AL_2PH_12KV_2 Length=0.006837 units=km
New Line.26423595$P5442421 phases=3 Bus1=26423598.1.2.3 Bus2=26413186.1.2.3 LineCode=2_CLP_3PH_12KV_3 Length=0.007173 units=km
New Line.26424782$26424792 phases=3 Bus1=26424785.1.2.3 Bus2=26424795.1.2.3 LineCode=1/0_CLP_3PH_12KV_3 Length=0.041041 units=km
New Line.ND26485996$26425082 phases=3 Bus1=26485996.1.2.3 Bus2=26425084.1.2.3 LineCode=2_AL_3PH_12KV_3 Length=0.009138 units=km
New Line.ND26485996$26425108 phases=3 Bus1=26485996.1.2.3 Bus2=26425111.1.2.3 LineCode=2_CLP_3PH_12KV_3 Length=0.008617 units=km
New Line.ND101768651$4346678E phases=3 Bus1=101768651.1.2.3 Bus2=95091220.1.2.3 LineCode=4_ACSR_3PH_12KV_3 Length=0.02747 units=km
New Line.ND106568775$GS1632-1 phases=3 Bus1=106568775.1.2.3 Bus2=26763837.1.2.3 LineCode=1000_CLP_3PH_12KV_3 Length=0.261605 units=km
New Line.ND106568775$GS2184-4 phases=3 Bus1=106568775.1.2.3 Bus2=74128532.1.2.3 LineCode=750_CLP_3PH_12KV_3 Length=0.008241 units=km
New Line.4224889E$GS1632-4 phases=3 Bus1=26763853.1.2.3 Bus2=26764017.1.2.3 LineCode=1000_JCN_3PH_12KV_3 Length=0.083007 units=km
New Line.GS2684-1$GS2683-3 phases=3 Bus1=133676584.1.2.3 Bus2=110835948.1.2.3 LineCode=350_CLP_3PH_12KV_3 Length=0.499288 units=km
New Line.110836607$PME2721-1 phases=3 Bus1=110836310.1.2.3 Bus2=110836609.1.2.3 LineCode=1/0_CLP_3PH_12KV_3 Length=0.047987 units=km
New Line.120219218$ND135368908 phases=3 Bus1=120219221.1.2.3 Bus2=135368908.1.2.3 LineCode=1/0_CLP_3PH_12KV_3 Length=0.0023 units=km
New Line.135634687$P5620799-1 phases=3 Bus1=135634690.1.2.3 Bus2=135634705.1.2.3 LineCode=2_JCN_3PH_12KV_3 Length=0.002205 units=km
New Line.144678520$P5609580-1 phases=3 Bus1=144678523.1.2.3 Bus2=144678536.1.2.3 LineCode=2_JCN_3PH_12KV_3 Length=0.004618 units=km
New Line.164728974$P5609459-1 phases=3 Bus1=164728977.1.2.3 Bus2=164728999.1.2.3 LineCode=1/0_JCN_3PH_12KV_3 Length=0.00271 units=km
New Line.PME1729-2$GS1726-1 phases=3 Bus1=241821528.1.2.3 Bus2=241821889.1.2.3 LineCode=1000_JCN_3PH_12KV_3 Length=0.271352 units=km
New Line.GS1726-3$GS1727-2 phases=3 Bus1=241821546.1.2.3 Bus2=241822177.1.2.3 LineCode=1000_JCN_3PH_12KV_3 Length=0.275269 units=km
New Line.4123473E$4350072E phases=4 Bus1=26764008.0.1.2.3 Bus2=71336863.0.1.2.3 LineCode=336_ACSR_3PH_336_ACSR_N_12KV_4 Length=0.224541 units=km
New Line.4350072E$223293437 phases=3 Bus1=71336864.1.2.3 Bus2=223293439.1.2.3 LineCode=2_CLP_3PH_12KV_3 Length=0.074483 units=km
New Line.4123483E$GS2372-3 phases=3 Bus1=97602740.1.2.3 Bus2=97602661.1.2.3 LineCode=750_CLP_3PH_12KV_3 Length=0.044391 units=km
New Line.PME2253-4$223293437 phases=3 Bus1=223293440.1.2.3 Bus2=90422760.1.2.3 LineCode=2_CLP_3PH_12KV_3 Length=0.130407 units=km
New Line.GS2453-4$4606760E phases=3 Bus1=26764066.1.2.3 Bus2=103417375.1.2.3 LineCode=1000_CLP_3PH_12KV_3 Length=0.010876 units=km
New Line.94272905$PME2253-2 phases=1 Bus1=90422770.2 Bus2=94272908.2 LineCode=2_CLP_1PH_12KV_1 Length=0.002545 units=km
New Line.GS2372-2$4123484E phases=2 Bus1=97602653.1.2 Bus2=97602934.1.2 LineCode=2_CLP_2PH_12KV_2 Length=0.032334 units=km
New Line.223293249$PME2253-3 phases=1 Bus1=90422779.3 Bus2=223293252.3 LineCode=__1PH_12KV_1 Length=0.001433 units=km
New Line.94272930$PME2253-1 phases=1 Bus1=90422788.1 Bus2=94272933.1 LineCode=2_CLP_1PH_12KV_1 Length=0.002442 units=km
New Line.GS2363-4$GS2372-1 phases=3 Bus1=97602645.1.2.3 Bus2=97602814.1.2.3 LineCode=750_CLP_3PH_12KV_3 Length=0.34643 units=km
New Line.GS2453-3$ND200023530 phases=3 Bus1=103417367.1.2.3 Bus2=200023530.1.2.3 LineCode=1000_CLP_3PH_12KV_3 Length=0.301443 units=km
New Line.94272905$223293237 phases=1 Bus1=94272907.2 Bus2=223293239.2 LineCode=2_CLP_1PH_12KV_1 Length=0.065163 units=km
New Line.ND200023530$GS1958-1 phases=3 Bus1=200023530.1.2.3 Bus2=103343210.1.2.3 LineCode=1000_CLP_3PH_12KV_3 Length=0.085322 units=km
New Line.94272930$223293279 phases=1 Bus1=94272932.1 Bus2=223293281.1 LineCode=2_CLP_1PH_12KV_1 Length=0.038241 units=km
New Line.223293249$223293323 phases=1 Bus1=223293251.3 Bus2=223293325.3 LineCode=__1PH_12KV_1 Length=0.07482 units=km
New Line.ND200023530$GS2355-2 phases=3 Bus1=200023530.1.2.3 Bus2=96167963.1.2.3 LineCode=1000_CLP_3PH_12KV_3 Length=0.533208 units=km
New Line.GS2453-1$GS3084-4 phases=3 Bus1=103417359.1.2.3 Bus2=200237860.1.2.3 LineCode=1000_JCN_3PH_12KV_3 Length=0.052937 units=km
New Line.223293237$93235986 phases=1 Bus1=223293240.2 Bus2=93235988.2 LineCode=2_CLP_1PH_12KV_1 Length=0.053849 units=km
New Line.GS2363-3$ND218647334 phases=1 Bus1=97602806.1 Bus2=218647334.1 LineCode=2_CLP_1PH_12KV_1 Length=0.012776 units=km
New Line.223293279$ND223293356 phases=1 Bus1=223293282.1 Bus2=223293356.1 LineCode=2_CLP_1PH_12KV_1 Length=0.008709 units=km
New Line.ND218647334$ND218647273 phases=1 Bus1=218647334.1 Bus2=218647273.1 LineCode=2_CLP_1PH_12KV_1 Length=0.007502 units=km
New Line.P5609345-1$ND218647334 phases=1 Bus1=218647334.1 Bus2=218647289.1 LineCode=1/0_JCN_1PH_12KV_1 Length=0.039291 units=km
New Line.ND223293356$223293301 phases=1 Bus1=223293356.1 Bus2=223293304.1 LineCode=2_CLP_1PH_12KV_1 Length=0.009085 units=km
New Line.223293313$ND223293356 phases=1 Bus1=223293356.1 Bus2=223293316.1 LineCode=2_CLP_1PH_12KV_1 Length=0.008539 units=km
New Line.93235986$P5564119-2 phases=1 Bus1=93235989.2 Bus2=93235911.2 LineCode=2_CLP_1PH_12KV_1 Length=0.001651 units=km
New Line.ND307170597$GS2683-5 phases=3 Bus1=133676600.1.2.3 Bus2=307170597.1.2.3 LineCode=1/0_JCN_3PH_12KV_3 Length=0.016603 units=km
New Line.GS2683-2$ND106569263 phases=3 Bus1=133676576.1.2.3 Bus2=106569263.1.2.3 LineCode=750_CLP_3PH_12KV_3 Length=0.413735 units=km
New Line.196313029$P5520181-2 phases=2 Bus1=196313032.1.3 Bus2=107367824.1.3 LineCode=2_CLP_2PH_12KV_2 Length=0.000653 units=km
New Line.ND135368908$S5588683 phases=3 Bus1=135368908.1.2.3 Bus2=110836242.1.2.3 LineCode=1/0_CLP_3PH_12KV_3 Length=0.0023 units=km
New Line.GS2355-3$4647520E phases=3 Bus1=96167971.1.2.3 Bus2=106568918.1.2.3 LineCode=1000_CLP_3PH_12KV_3 Length=0.519384 units=km
New Line.V5581535$ND218647273 phases=1 Bus1=218647273.1 Bus2=218647259.1 LineCode=1/0_JCN_1PH_12KV_1 Length=0.001804 units=km
New Line.ND218647273$97603335 phases=1 Bus1=218647273.1 Bus2=97603337.1 LineCode=2_CLP_1PH_12KV_1 Length=0.08639 units=km
New Line.223293301$223293368 phases=1 Bus1=223293303.1 Bus2=223293370.1 LineCode=2_CLP_1PH_12KV_1 Length=0.046838 units=km
New Line.223293313$223293579 phases=1 Bus1=223293315.1 Bus2=223293581.1 LineCode=1/0_JCN_1PH_12KV_1 Length=0.075104 units=km
New Line.4647520E$4135655E phases=4 Bus1=106568917.0.1.2.3 Bus2=26782321.0.1.2.3 LineCode=336_ACSR_3PH_336_ACSR_N_12KV_4 Length=0.362208 units=km
New Line.93236013$P5564119-1 phases=1 Bus1=93235902.2 Bus2=93236016.2 LineCode=2_CLP_1PH_12KV_1 Length=0.002142 units=km
New Line.97603335$PFC2373-1 phases=1 Bus1=97603338.1 Bus2=97602969.1 LineCode=2_CLP_1PH_12KV_1 Length=0.00308 units=km
New Line.ND135368908$ND135368921 phases=3 Bus1=135368908.1.2.3 Bus2=135368921.1.2.3 LineCode=2_JCN_3PH_12KV_3 Length=0.046621 units=km
New Line.174170342$P5585121-2 phases=2 Bus1=174170345.2.3 Bus2=169875139.2.3 LineCode=2_JCN_2PH_12KV_2 Length=0.00272 units=km
New Line.194312139$ND307170597 phases=3 Bus1=307170597.1.2.3 Bus2=194312141.1.2.3 LineCode=__3PH_12KV_3 Length=0.073242 units=km
New Line.GS1351-4$PME1352-2 phases=3 Bus1=236046191.1.2.3 Bus2=236046315.1.2.3 LineCode=1000_JCN_3PH_12KV_3 Length=0.337886 units=km
New Line.PH891$251264879 phases=3 Bus1=251264845.1.2.3 Bus2=251264881.1.2.3 LineCode=1/0_JCN_3PH_12KV_3 Length=0.102652 units=km
New Line.26400627$P5424944-1 phases=2 Bus1=26400630.1.2 Bus2=26400643.1.2 LineCode=2_AL_2PH_12KV_2 Length=0.0091 units=km
New Line.26425082$P5424990-1 phases=3 Bus1=26425085.1.2.3 Bus2=26413065.1.2.3 LineCode=2_AL_3PH_12KV_3 Length=0.013455 units=km
New Line.223293579$P5573520-2 phases=1 Bus1=223293582.1 Bus2=223293526.1 LineCode=1/0_JCN_1PH_12KV_1 Length=0.002103 units=km
New Line.90422610$223293368 phases=1 Bus1=223293371.1 Bus2=90422612.1 LineCode=2_CLP_1PH_12KV_1 Length=0.092942 units=km
New Line.93236038$93236013 phases=1 Bus1=93236015.2 Bus2=93236040.2 LineCode=2_CLP_1PH_12KV_1 Length=0.168933 units=km
New Line.PFC2373-1$97603360 phases=1 Bus1=97602970.1 Bus2=97603363.1 LineCode=2_CLP_1PH_12KV_1 Length=0.005601 units=km
New Line.90422610$P5519780-2 phases=1 Bus1=90422613.1 Bus2=71336933.1 LineCode=2_CLP_1PH_12KV_1 Length=0.002374 units=km
New Line.P5573520-1$223293591 phases=1 Bus1=223293517.1 Bus2=223293593.1 LineCode=1/0_JCN_1PH_12KV_1 Length=0.053304 units=km
New Line.93236038$P5564121-2 phases=1 Bus1=93236041.2 Bus2=93235712.2 LineCode=2_CLP_1PH_12KV_1 Length=0.001848 units=km
New Line.97603360$97603308 phases=1 Bus1=97603362.1 Bus2=97603310.1 LineCode=2_CLP_1PH_12KV_1 Length=0.065795 units=km
New Line.223293601$223293591 phases=1 Bus1=223293594.1 Bus2=223293604.1 LineCode=1/0_JCN_1PH_12KV_1 Length=0.018768 units=km
New Line.90422637$P5519780-1 phases=1 Bus1=71336924.1 Bus2=90422640.1 LineCode=2_CLP_1PH_12KV_1 Length=0.002283 units=km
New Line.97603308$P5569470-1 phases=1 Bus1=97603311.1 Bus2=97603118.1 LineCode=2_CLP_1PH_12KV_1 Length=0.002899 units=km
New Line.26424792$26424802 phases=3 Bus1=26424794.1.2.3 Bus2=26424804.1.2.3 LineCode=1/0_CLP_3PH_12KV_3 Length=0.05337 units=km
New Line.307170562$ND307170597 phases=3 Bus1=307170597.1.2.3 Bus2=307170564.1.2.3 LineCode=__3PH_12KV_3 Length=0.10517 units=km
New Line.26425108$ND92630408 phases=3 Bus1=26425110.1.2.3 Bus2=92630408.1.2.3 LineCode=2_CLP_3PH_12KV_3 Length=0.095982 units=km
New Line.4346678E$ND95091393 phases=3 Bus1=95091221.1.2.3 Bus2=95091393.1.2.3 LineCode=2_AL_3PH_12KV_3 Length=0.039206 units=km
New Line.P5588681-1$110836607 phases=3 Bus1=110836610.1.2.3 Bus2=110836563.1.2.3 LineCode=1/0_CLP_3PH_12KV_3 Length=0.003124 units=km
New Line.ND135368921$135634752 phases=3 Bus1=135368921.1.2.3 Bus2=135634754.1.2.3 LineCode=2_JCN_3PH_12KV_3 Length=0.014739 units=km
New Line.ND92630408$182525750 phases=3 Bus1=92630408.1.2.3 Bus2=182525752.1.2.3 LineCode=2_CLP_3PH_12KV_3 Length=0.211865 units=km
New Line.4833228E$183393656 phases=2 Bus1=183393493.1.2 Bus2=183393658.1.2 LineCode=1/0_JCN_2PH_12KV_2 Length=0.120253 units=km
New Line.ND92630408$P5517485-1 phases=3 Bus1=92630408.1.2.3 Bus2=26413113.1.2.3 LineCode=2_CLP_3PH_12KV_3 Length=0.326624 units=km
New Line.P5519638-1$ND95091393 phases=3 Bus1=95091393.1.2.3 Bus2=95091261.1.2.3 LineCode=2_AL_3PH_12KV_3 Length=0.011445 units=km
New Line.ND95091393$P5519639-2 phases=2 Bus1=95091393.1.2 Bus2=95091331.1.2 LineCode=2_AL_2PH_12KV_2 Length=0.023506 units=km
New Line.4713325E$ND106569263 phases=3 Bus1=106569263.1.2.3 Bus2=96620423.1.2.3 LineCode=1000_CLP_3PH_12KV_3 Length=0.148582 units=km
New Line.ND106569263$GS2348-4 phases=3 Bus1=106569263.1.2.3 Bus2=96620510.1.2.3 LineCode=1000_CLP_3PH_12KV_3 Length=1.77881 units=km
New Line.194312139$P5576534-1 phases=3 Bus1=194312142.1.2.3 Bus2=194312104.1.2.3 LineCode=1/0_JCN_3PH_12KV_3 Length=0.002242 units=km
New Line.PME1729-3$241822098 phases=3 Bus1=241821871.1.2.3 Bus2=241822100.1.2.3 LineCode=1/0_JCN_3PH_12KV_3 Length=0.120218 units=km
New Line.251264879$P5573061-1 phases=3 Bus1=251264882.1.2.3 Bus2=251264897.1.2.3 LineCode=1/0_JCN_3PH_12KV_3 Length=0.007746 units=km
New Line.26424802$P5424902 phases=3 Bus1=26424805.1.2.3 Bus2=26399598.1.2.3 LineCode=1/0_CLP_3PH_12KV_3 Length=0.008749 units=km
New Line.307170562$307170550 phases=3 Bus1=307170565.1.2.3 Bus2=307170553.1.2.3 LineCode=__3PH_12KV_3 Length=0.013803 units=km
New Line.ND133676813$GS2684-2 phases=3 Bus1=110835956.1.2.3 Bus2=133676813.1.2.3 LineCode=1/0_JCN_3PH_12KV_3 Length=0.015604 units=km
New Line.PS0402$4713325E phases=4 Bus1=96620422.0.1.2.3 Bus2=145052204.0.1.2.3 LineCode=336_ACSR_3PH_336_ACSR_N_12KV_4 Length=0.043608 units=km
New Line.174170354$P5585121-1 phases=2 Bus1=169875130.2.3 Bus2=174170357.2.3 LineCode=2_JCN_2PH_12KV_2 Length=0.002559 units=km
New Line.93236063$P5564121-1 phases=1 Bus1=93235703.2 Bus2=93236066.2 LineCode=2_CLP_1PH_12KV_1 Length=0.00229 units=km
New Line.223293601$223293611 phases=1 Bus1=223293603.1 Bus2=223293613.1 LineCode=1/0_JCN_1PH_12KV_1 Length=0.018669 units=km
New Line.90422637$90422712 phases=1 Bus1=90422639.1 Bus2=90422714.1 LineCode=2_CLP_1PH_12KV_1 Length=0.115351 units=km
New Line.4647516E$ND104842687 phases=3 Bus1=104842687.1.2.3 Bus2=104842657.1.2.3 LineCode=336_ACSR_3PH_12KV_3 Length=0.02984 units=km
New Line.93236063$93236090 phases=1 Bus1=93236065.2 Bus2=93236092.2 LineCode=2_CLP_1PH_12KV_1 Length=0.205159 units=km
New Line.P5569470-2$ND97603269 phases=1 Bus1=97603127.1 Bus2=97603269.1 LineCode=2_CLP_1PH_12KV_1 Length=0.003595 units=km
New Line.223293611$P5573522-2 phases=1 Bus1=223293614.1 Bus2=223293636.1 LineCode=1/0_JCN_1PH_12KV_1 Length=0.002089 units=km
New Line.90422712$90422687 phases=1 Bus1=90422715.1 Bus2=90422690.1 LineCode=2_CLP_1PH_12KV_1 Length=0.027211 units=km
New Line.ND97603269$97603385 phases=1 Bus1=97603269.1 Bus2=97603388.1 LineCode=2_CLP_1PH_12KV_1 Length=0.002834 units=km
New Line.ND97603269$97603410 phases=1 Bus1=97603269.1 Bus2=97603413.1 LineCode=2_CLP_1PH_12KV_1 Length=0.012669 units=km
New Line.4647516E$P5519668-1 phases=3 Bus1=104842658.1.2.3 Bus2=104842702.1.2.3 LineCode=2_CLP_3PH_12KV_3 Length=0.15491 units=km
New Line.93236090$P5564123-2 phases=1 Bus1=93236093.2 Bus2=90423004.2 LineCode=2_CLP_1PH_12KV_1 Length=0.002249 units=km
New Line.4343790E$P5344790-1 phases=3 Bus1=26817658.1.2.3 Bus2=26782358.1.2.3 LineCode=2_CLP_3PH_12KV_3 Length=0.009274 units=km
New Line.90422687$90422662 phases=1 Bus1=90422689.1 Bus2=90422664.1 LineCode=2_CLP_1PH_12KV_1 Length=0.074349 units=km
New Line.97603435$97603410 phases=1 Bus1=97603412.1 Bus2=97603437.1 LineCode=2_CLP_1PH_12KV_1 Length=0.066334 units=km
New Line.97603460$97603385 phases=1 Bus1=97603387.1 Bus2=97603462.1 LineCode=2_CLP_1PH_12KV_1 Length=0.149728 units=km
New Line.4346320E$ND239290974 phases=3 Bus1=239290974.1.2.3 Bus2=239290951.1.2.3 LineCode=1/0_ACSR_3PH_12KV_3 Length=0.003707 units=km
New Line.90422662$P5457225-2 phases=1 Bus1=90422665.1 Bus2=90422541.1 LineCode=2_CLP_1PH_12KV_1 Length=0.012132 units=km
New Line.93236115$P5564123-1 phases=1 Bus1=90422995.2 Bus2=93236118.2 LineCode=2_CLP_1PH_12KV_1 Length=0.001876 units=km
New Line.97603460$P5569472-2 phases=1 Bus1=97603463.1 Bus2=97603044.1 LineCode=2_CLP_1PH_12KV_1 Length=0.004467 units=km
New Line.97603435$P5569471-1 phases=1 Bus1=97603438.1 Bus2=97603198.1 LineCode=2_CLP_1PH_12KV_1 Length=0.002625 units=km
New Line.4346320E$ND239291055 phases=3 Bus1=239290952.1.2.3 Bus2=239291037.1.2.3 LineCode=1/0_CLP_3PH_12KV_3 Length=0.054085 units=km
New Line.93236140$93236115 phases=1 Bus1=93236117.2 Bus2=93236142.2 LineCode=2_CLP_1PH_12KV_1 Length=0.195203 units=km
New Line.183393656$ND183393689 phases=2 Bus1=183393659.1.2 Bus2=183393671.1.2 LineCode=1/0_JCN_2PH_12KV_2 Length=0.005066 units=km
New Line.135634752$P5620806-A phases=3 Bus1=135634755.1.2.3 Bus2=218779089.1.2.3 LineCode=2_JCN_3PH_12KV_3 Length=0.002513 units=km
New Line.GS1727-3$241822381 phases=3 Bus1=241822185.1.2.3 Bus2=241822383.1.2.3 LineCode=1/0_JCN_3PH_12KV_3 Length=0.148772 units=km
New Line.GS1727-1$241822401 phases=3 Bus1=241822169.1.2.3 Bus2=241822403.1.2.3 LineCode=1/0_JCN_3PH_12KV_3 Length=0.177378 units=km
New Line.P5347709-1$4069254E phases=3 Bus1=26817645.1.2.3 Bus2=26782406.1.2.3 LineCode=1/0_CLP_3PH_12KV_3 Length=0.067525 units=km
New Line.2185476E$2224028E phases=2 Bus1=105888221.2.3 Bus2=26413403.2.3 LineCode=4_ACSR_2PH_12KV_2 Length=0.051937 units=km
New Line.ND26486866$ND251264867 phases=3 Bus1=251264867.1.2.3 Bus2=26486866.1.2.3 LineCode=2_ACSR_3PH_12KV_3 Length=0.07231 units=km
New Line.4685112E$ND101768651 phases=2 Bus1=101768651.1.2 Bus2=99997517.1.2 LineCode=4_ACSR_2PH_12KV_2 Length=0.633425 units=km
New Line.4224889E$ND26911757 phases=4 Bus1=26764016.0.1.2.3 Bus2=26911757.0.1.2.3 LineCode=653_ACSR_3PH_653_ACSR_N_12KV_4 Length=0.011129 units=km
New Line.4224889ET1T1$ND26911757 phases=4 Bus1=26911757.0.1.2.3 Bus2=26869658.0.1.2.3 LineCode=653_ACSR_3PH_653_ACSR_N_12KV_4 Length=0.100493 units=km
New Line.PS0827$ND26911757 phases=4 Bus1=26911757.0.1.2.3 Bus2=26869685.0.1.2.3 LineCode=653_ACSR_3PH_653_ACSR_N_12KV_4 Length=0.077477 units=km
New Line.4224889ET1T1$4123473E phases=4 Bus1=26869657.0.1.2.3 Bus2=26764008.0.1.2.3 LineCode=653_ACSR_3PH_653_ACSR_N_12KV_4 Length=0.034252 units=km
New Line.PS0827$4123487E phases=4 Bus1=26869686.0.1.2.3 Bus2=26868752.0.1.2.3 LineCode=653_ACSR_3PH_653_ACSR_N_12KV_4 Length=0.20003 units=km
New Line.4833228E$ND183393516 phases=2 Bus1=183393516.1.2 Bus2=183393492.1.2 LineCode=4_ACSR_2PH_12KV_2 Length=0.003739 units=km
New Line.ND236971356$4962625E phases=2 Bus1=236971356.2.3 Bus2=236971367.2.3 LineCode=1/0_ACSR_2PH_12KV_2 Length=0.115842 units=km
New Line.ND26486866$ND240565509 phases=3 Bus1=26486866.1.2.3 Bus2=240565509.1.2.3 LineCode=4_ACSR_3PH_12KV_3 Length=0.01804 units=km
New Line.BF74671$4185944E phases=2 Bus1=215609770.2.3 Bus2=26342584.2.3 LineCode=1/0_ACSR_2PH_12KV_2 Length=0.128125 units=km
New Line.4123487E$ND26911721 phases=4 Bus1=26868752.0.1.2.3 Bus2=26911721.0.1.2.3 LineCode=653_ACSR_3PH_653_ACSR_N_12KV_4 Length=0.183283 units=km
New Line.ND26911721$4123481E phases=4 Bus1=26911721.0.1.2.3 Bus2=69515151.0.1.2.3 LineCode=653_ACSR_3PH_653_ACSR_N_12KV_4 Length=0.190461 units=km
New Line.ND26911721$4123483E phases=4 Bus1=26911721.0.1.2.3 Bus2=97602739.0.1.2.3 LineCode=1/0_ACSR_3PH_1/0_ACSR_N_12KV_4 Length=0.092994 units=km
New Line.4123481E$ND102440043 phases=4 Bus1=69515151.0.1.2.3 Bus2=102440043.0.1.2.3 LineCode=653_ACSR_3PH_653_ACSR_N_12KV_4 Length=0.015788 units=km
New Line.ND102440043$4606760E phases=4 Bus1=102440043.0.1.2.3 Bus2=26764065.0.1.2.3 LineCode=653_ACSR_3PH_653_ACSR_N_12KV_4 Length=0.07621 units=km
New Line.4123484E$BF74693 phases=2 Bus1=97602933.1.2 Bus2=214393480.1.2 LineCode=2_ACSR_2PH_12KV_2 Length=0.038195 units=km
New Line.BF74693$4123485E phases=2 Bus1=214393481.1.2 Bus2=26764057.1.2 LineCode=2_ACSR_2PH_12KV_2 Length=0.005653 units=km
New Line.ND236971356$4020169E phases=2 Bus1=236971356.2.3 Bus2=26414068.2.3 LineCode=4_ACSR_2PH_12KV_2 Length=0.085394 units=km
New Line.2185476E$ND26464857 phases=2 Bus1=26413403.2.3 Bus2=26464857.2.3 LineCode=4_ACSR_2PH_12KV_2 Length=0.061185 units=km
New Line.4344240E$ND183393516 phases=3 Bus1=183393516.1.2.3 Bus2=70465471.1.2.3 LineCode=336_ACSR_3PH_12KV_3 Length=0.042224 units=km
New Line.4685112E$4685113E phases=2 Bus1=99997517.1.2 Bus2=99997478.1.2 LineCode=4_ACSR_2PH_12KV_2 Length=0.113917 units=km
New Line.4020169E$ND135167801 phases=2 Bus1=26414068.2.3 Bus2=135167801.2.3 LineCode=4_ACSR_2PH_12KV_2 Length=0.099296 units=km
New Line.4962625E$4962626E phases=2 Bus1=236971367.2.3 Bus2=236504115.2.3 LineCode=1/0_ACSR_2PH_12KV_2 Length=0.063482 units=km
New Line.ND26464857$2233916E phases=2 Bus1=26464857.2.3 Bus2=26342359.2.3 LineCode=4_ACSR_2PH_12KV_2 Length=0.119681 units=km
New Line.ND26464857$2224029E phases=2 Bus1=26464857.2.3 Bus2=26342384.2.3 LineCode=4_ACSR_2PH_12KV_2 Length=0.105206 units=km
New Line.4135651E$4135655E phases=4 Bus1=26782321.0.1.2.3 Bus2=26869789.0.1.2.3 LineCode=336_ACSR_3PH_336_ACSR_N_12KV_4 Length=0.300978 units=km
New Line.4135651E$ND26910546 phases=4 Bus1=26869788.0.1.2.3 Bus2=26910546.0.1.2.3 LineCode=336_ACSR_3PH_336_ACSR_N_12KV_4 Length=0.008263 units=km
New Line.ND106568884$ND26910546 phases=4 Bus1=26910546.0.1.2.3 Bus2=106568884.0.1.2.3 LineCode=336_ACSR_3PH_336_ACSR_N_12KV_4 Length=0.158446 units=km
New Line.ND26910546$ND119377579 phases=4 Bus1=26910546.0.1.2.3 Bus2=119377533.0.1.2.3 LineCode=336_ACSR_3PH_336_ACSR_N_12KV_4 Length=0.083153 units=km
New Line.PS0985$ND106568884 phases=4 Bus1=106568884.0.1.2.3 Bus2=104842620.0.1.2.3 LineCode=336_ACSR_3PH_336_ACSR_N_12KV_4 Length=0.086414 units=km
New Line.4647517E$PS0985 phases=4 Bus1=104842621.0.1.2.3 Bus2=26816880.0.1.2.3 LineCode=336_ACSR_3PH_336_ACSR_N_12KV_4 Length=0.876583 units=km
New Line.ND26911175$4344240E phases=3 Bus1=70465471.1.2.3 Bus2=26911175.1.2.3 LineCode=336_ACSR_3PH_12KV_3 Length=0.151752 units=km
New Line.ND26911175$BF74686 phases=2 Bus1=26911175.1.3 Bus2=212573408.1.3 LineCode=1/0_ACSR_2PH_12KV_2 Length=0.086781 units=km
New Line.ND135167801$4686694E phases=2 Bus1=135167801.2.3 Bus2=231768707.2.3 LineCode=4_ACSR_2PH_12KV_2 Length=0.114236 units=km
New Line.ND135167801$ND26467119 phases=2 Bus1=135167801.2.3 Bus2=26467119.2.3 LineCode=4_ACSR_2PH_12KV_2 Length=0.189131 units=km
New Line.2224029E$ND26467785 phases=2 Bus1=26342384.2.3 Bus2=26467785.2.3 LineCode=4_ACSR_2PH_12KV_2 Length=0.00391 units=km
New Line.4135090E$ND26911175 phases=3 Bus1=26911175.1.2.3 Bus2=26800382.1.2.3 LineCode=336_ACSR_3PH_12KV_3 Length=0.070833 units=km
New Line.ND26467119$4697334E phases=2 Bus1=26467119.2.3 Bus2=110620877.2.3 LineCode=4_ACSR_2PH_12KV_2 Length=0.088055 units=km
New Line.4686694E$4686695E phases=2 Bus1=231768707.2.3 Bus2=135167812.2.3 LineCode=4_ACSR_2PH_12KV_2 Length=0.014313 units=km
New Line.BF74716$ND26467785 phases=2 Bus1=26467785.2.3 Bus2=214377651.2.3 LineCode=4_ACSR_2PH_12KV_2 Length=0.003662 units=km
New Line.ND26467119$4344064E phases=2 Bus1=26467119.2.3 Bus2=239099260.2.3 LineCode=4_ACSR_2PH_12KV_2 Length=0.207587 units=km
New Line.ND26467785$2252803E phases=2 Bus1=26467785.2.3 Bus2=26342409.2.3 LineCode=4_ACSR_2PH_12KV_2 Length=0.09986 units=km
New Line.ND26467119$4288862E phases=2 Bus1=26467119.2.3 Bus2=26381711.2.3 LineCode=4_ACSR_2PH_12KV_2 Length=0.084713 units=km
New Line.ND26871676$4135090E phases=3 Bus1=26800382.1.2.3 Bus2=26871676.1.2.3 LineCode=336_ACSR_3PH_12KV_3 Length=0.133998 units=km
New Line.ND104842687$4647517E phases=4 Bus1=26816880.0.1.2.3 Bus2=104842687.0.1.2.3 LineCode=336_ACSR_3PH_336_ACSR_N_12KV_4 Length=0.056287 units=km
New Line.ND119377581$ND26914026 phases=4 Bus1=119377515.0.1.2.3 Bus2=26914026.0.1.2.3 LineCode=336_ACSR_3PH_336_ACSR_N_12KV_4 Length=0.22685 units=km
New Line.ND26914026$BF74714 phases=3 Bus1=26914026.1.2.3 Bus2=215132794.1.2.3 LineCode=1/0_ACSR_3PH_12KV_3 Length=0.075693 units=km
New Line.ND26914026$PS0022 phases=4 Bus1=26914026.0.1.2.3 Bus2=26423531.0.1.2.3 LineCode=336_ACSR_3PH_336_ACSR_N_12KV_4 Length=0.257233 units=km
New Line.ND26871824$ND104842687 phases=4 Bus1=104842687.0.1.2.3 Bus2=26871824.0.1.2.3 LineCode=336_ACSR_3PH_336_ACSR_N_12KV_4 Length=0.111022 units=km
New Line.ND26871824$4343790E phases=3 Bus1=26871824.1.2.3 Bus2=26817657.1.2.3 LineCode=2_ACSR_3PH_12KV_3 Length=0.186854 units=km
New Line.4346316E$ND26871824 phases=4 Bus1=26871824.0.1.2.3 Bus2=70465519.0.1.2.3 LineCode=336_ACSR_3PH_336_ACSR_N_12KV_4 Length=0.196199 units=km
New Line.4226316E$PS0022 phases=4 Bus1=26423530.0.1.2.3 Bus2=135317066.0.1.2.3 LineCode=336_ACSR_3PH_336_ACSR_N_12KV_4 Length=0.032953 units=km
New Line.BF74714$1553005E phases=3 Bus1=215132795.1.2.3 Bus2=26782346.1.2.3 LineCode=1/0_ACSR_3PH_12KV_3 Length=0.027096 units=km
New Line.4346316E$4346317E phases=4 Bus1=70465519.0.1.2.3 Bus2=26819150.0.1.2.3 LineCode=336_ACSR_3PH_336_ACSR_N_12KV_4 Length=0.077585 units=km
New Line.465857S$4226316E phases=4 Bus1=135317066.0.1.2.3 Bus2=26342776.0.1.2.3 LineCode=336_ACSR_3PH_336_ACSR_N_12KV_4 Length=0.069564 units=km
New Line.ND26910783$4346317E phases=4 Bus1=26819150.0.1.2.3 Bus2=26910783.0.1.2.3 LineCode=336_ACSR_3PH_336_ACSR_N_12KV_4 Length=0.108954 units=km
New Line.ND26910783$BF74695 phases=3 Bus1=26910783.1.2.3 Bus2=214393521.1.2.3 LineCode=1/0_ACSR_3PH_12KV_3 Length=0.458279 units=km
New Line.ND239290974$ND26910783 phases=4 Bus1=26910783.0.1.2.3 Bus2=239290974.0.1.2.3 LineCode=2_ACSR_3PH_2_ACSR_N_12KV_4 Length=0.0701 units=km