! OpenDSS script generated from multiconductor network
Clear

New Circuit.mc_network basekv=16.0 pu=1.000000 angle=0.00 frequency=60.0 phases=3 Mvasc3=255987 Mvasc1=85329.1
~ bus1=-8888882185721.1.2.3

! Line codes
New LineCode.350_PILC_3PH_16KV_3 nphases=3 units=km Rmatrix=[ 0.007988 | 0 0.007988 | 0 0 0.007988 ] Xmatrix=[ 0.006853 | 0 0.006853 | 0 0 0.006853 ] Cmatrix=[ 0 | 0 0 | 0 0 0 ]
New LineCode.350_CLP_3PH_16KV_3 nphases=3 units=km Rmatrix=[ 0.011674 | 0 0.011674 | 0 0 0.011674 ] Xmatrix=[ 0.00887 | 0 0.00887 | 0 0 0.00887 ] Cmatrix=[ 0 | 0 0 | 0 0 0 ]
New LineCode.2_AL_2PH_16KV_2 nphases=2 units=km Rmatrix=[ 0.178873 | 0 0.178873 ] Xmatrix=[ 0.037703 | 0 0.037703 ] Cmatrix=[ 0 | 0 0 ]
New LineCode.4_ACSR_2PH_16KV_2 nphases=2 units=km Rmatrix=[ 0.085011 | 0 0.085011 ] Xmatrix=[ 0.031194 | 0 0.031194 ] Cmatrix=[ 0 | 0 0 ]
New LineCode.1/0_ACSR_3PH_16KV_3 nphases=3 units=km Rmatrix=[ 0.001768 | 0 0.001768 | 0 0 0.001768 ] Xmatrix=[ 0.001407 | 0 0.001407 | 0 0 0.001407 ] Cmatrix=[ 0 | 0 0 | 0 0 0 ]
New LineCode.1000_CLP_3PH_16KV_3 nphases=3 units=km Rmatrix=[ 0.016465 | 0 0.016465 | 0 0 0.016465 ] Xmatrix=[ 0.024924 | 0 0.024924 | 0 0 0.024924 ] Cmatrix=[ 0 | 0 0 | 0 0 0 ]
New LineCode.1/0_JCN_3PH_16KV_3 nphases=3 units=km Rmatrix=[ 0.084486 | 0 0.084486 | 0 0 0.084486 ] Xmatrix=[ 0.025823 | 0 0.025823 | 0 0 0.025823 ] Cmatrix=[ 0 | 0 0 | 0 0 0 ]
New LineCode.1/0_CLP_3PH_16KV_3 nphases=3 units=km Rmatrix=[ 0.001198 | 0 0.001198 | 0 0 0.001198 ] Xmatrix=[ 0.000366 | 0 0.000366 | 0 0 0.000366 ] Cmatrix=[ 0 | 0 0 | 0 0 0 ]
New LineCode.2_CLP_3PH_16KV_3 nphases=3 units=km Rmatrix=[ 0.045934 | 0 0.045934 | 0 0 0.045934 ] Xmatrix=[ 0.009682 | 0 0.009682 | 0 0 0.009682 ] Cmatrix=[ 0 | 0 0 | 0 0 0 ]
New LineCode.2_CLP_2PH_16KV_2 nphases=2 units=km Rmatrix=[ 0.103699 | 0 0.103699 ] Xmatrix=[ 0.021858 | 0 0.021858 ] Cmatrix=[ 0 | 0 0 ]
New LineCode.1/0_JCN_2PH_16KV_2 nphases=2 units=km Rmatrix=[ 0.001612 | 0 0.001612 ] Xmatrix=[ 0.000493 | 0 0.000493 ] Cmatrix=[ 0 | 0 0 ]
New LineCode.2_CLP_1PH_16KV_1 nphases=1 units=km Rmatrix=[ 0.006831 ] Xmatrix=[ 0.00144 ] Cmatrix=[ 0 ]
New LineCode.1/0_ACSR_3PH_1/0_ACSR_N_16KV_4 nphases=4 units=km Rmatrix=[ 0.017155 | 0 0.017155 | 0 0 0.017155 | 0 0 0 0.017155 ] Xmatrix=[ 0.012397 | 0 0.012397 | 0 0 0.012397 | 0 0 0 0.012397 ] Cmatrix=[ 0 | 0 0 | 0 0 0 | 0 0 0 0 ]
New LineCode.2_ACSR_3PH_16KV_3 nphases=3 units=km Rmatrix=[ 0.241761 | 0 0.241761 | 0 0 0.241761 ] Xmatrix=[ 0.129973 | 0 0.129973 | 0 0 0.129973 ] Cmatrix=[ 0 | 0 0 | 0 0 0 ]
New LineCode.1/0_AL_2PH_16KV_2 nphases=2 units=km Rmatrix=[ 0.166746 | 0 0.166746 ] Xmatrix=[ 0.050965 | 0 0.050965 ] Cmatrix=[ 0 | 0 0 ]
New LineCode.1000_JCN_3PH_16KV_3 nphases=3 units=km Rmatrix=[ 0.000654 | 0 0.000654 | 0 0 0.000654 ] Xmatrix=[ 0.000989 | 0 0.000989 | 0 0 0.000989 ] Cmatrix=[ 0 | 0 0 | 0 0 0 ]
New LineCode.1/0_AL_3PH_16KV_3 nphases=3 units=km Rmatrix=[ 0.003976 | 0 0.003976 | 0 0 0.003976 ] Xmatrix=[ 0.001215 | 0 0.001215 | 0 0 0.001215 ] Cmatrix=[ 0 | 0 0 | 0 0 0 ]
New LineCode.350_JCN_3PH_16KV_3 nphases=3 units=km Rmatrix=[ 0.012597 | 0 0.012597 | 0 0 0.012597 ] Xmatrix=[ 0.009571 | 0 0.009571 | 0 0 0.009571 ] Cmatrix=[ 0 | 0 0 | 0 0 0 ]
New LineCode.1/0_CLP_2PH_16KV_2 nphases=2 units=km Rmatrix=[ 0.001304 | 0 0.001304 ] Xmatrix=[ 0.000398 | 0 0.000398 ] Cmatrix=[ 0 | 0 0 ]
New LineCode.336_ACSR_3PH_336_ACSR_N_16KV_4 nphases=4 units=km Rmatrix=[ 0.013299 | 0 0.013299 | 0 0 0.013299 | 0 0 0 0.013299 ] Xmatrix=[ 0.026522 | 0 0.026522 | 0 0 0.026522 | 0 0 0 0.026522 ] Cmatrix=[ 0 | 0 0 | 0 0 0 | 0 0 0 0 ]
New LineCode.1/0_CLP_1PH_16KV_1 nphases=1 units=km Rmatrix=[ 0.000783 ] Xmatrix=[ 0.000239 ] Cmatrix=[ 0 ]
New LineCode.350_AL_3PH_16KV_3 nphases=3 units=km Rmatrix=[ 0.018645 | 0 0.018645 | 0 0 0.018645 ] Xmatrix=[ 0.014166 | 0 0.014166 | 0 0 0.014166 ] Cmatrix=[ 0 | 0 0 | 0 0 0 ]
New LineCode.1/0_ACSR_1PH_16KV_2 nphases=2 units=km Rmatrix=[ 0.049336 | 0 0.049336 ] Xmatrix=[ 0.039281 | 0 0.039281 ] Cmatrix=[ 0 | 0 0 ]
New LineCode.653_ACSR_3PH_16KV_3 nphases=3 units=km Rmatrix=[ 0.000181 | 0 0.000181 | 0 0 0.000181 ] Xmatrix=[ 0.000705 | 0 0.000705 | 0 0 0.000705 ] Cmatrix=[ 0 | 0 0 | 0 0 0 ]
New LineCode.4_CU_3PH_16KV_3 nphases=3 units=km Rmatrix=[ 0.128161 | 0 0.128161 | 0 0 0.128161 ] Xmatrix=[ 0.069848 | 0 0.069848 | 0 0 0.069848 ] Cmatrix=[ 0 | 0 0 | 0 0 0 ]
New LineCode.1/0_ACSR_2PH_16KV_2 nphases=2 units=km Rmatrix=[ 0.007134 | 0 0.007134 ] Xmatrix=[ 0.00568 | 0 0.00568 ] Cmatrix=[ 0 | 0 0 ]
New LineCode.336_ACSR_3PH_16KV_3 nphases=3 units=km Rmatrix=[ 0.001207 | 0 0.001207 | 0 0 0.001207 ] Xmatrix=[ 0.002703 | 0 0.002703 | 0 0 0.002703 ] Cmatrix=[ 0 | 0 0 | 0 0 0 ]
New LineCode.2/0_CU_3PH_16KV_3 nphases=3 units=km Rmatrix=[ 0.019837 | 0 0.019837 | 0 0 0.019837 ] Xmatrix=[ 0.030596 | 0 0.030596 | 0 0 0.030596 ] Cmatrix=[ 0 | 0 0 | 0 0 0 ]
New LineCode.6_CU_2PH_16KV_2 nphases=2 units=km Rmatrix=[ 0.038442 | 0 0.038442 ] Xmatrix=[ 0.013626 | 0 0.013626 ] Cmatrix=[ 0 | 0 0 ]
New LineCode.6_CU_3PH_16KV_3 nphases=3 units=km Rmatrix=[ 0.008943 | 0 0.008943 | 0 0 0.008943 ] Xmatrix=[ 0.00317 | 0 0.00317 | 0 0 0.00317 ] Cmatrix=[ 0 | 0 0 | 0 0 0 ]
New LineCode.2/0_ACSR_3PH_16KV_3 nphases=3 units=km Rmatrix=[ 0.035176 | 0 0.035176 | 0 0 0.035176 ] Xmatrix=[ 0.034056 | 0 0.034056 | 0 0 0.034056 ] Cmatrix=[ 0 | 0 0 | 0 0 0 ]
New LineCode.4_CU_2PH_16KV_2 nphases=2 units=km Rmatrix=[ 0.05651 | 0 0.05651 ] Xmatrix=[ 0.030798 | 0 0.030798 ] Cmatrix=[ 0 | 0 0 ]
New LineCode.4_ACSR_3PH_16KV_3 nphases=3 units=km Rmatrix=[ 0.105108 | 0 0.105108 | 0 0 0.105108 ] Xmatrix=[ 0.038568 | 0 0.038568 | 0 0 0.038568 ] Cmatrix=[ 0 | 0 0 | 0 0 0 ]
New LineCode.2_ACSR_2PH_16KV_2 nphases=2 units=km Rmatrix=[ 0.040199 | 0 0.040199 ] Xmatrix=[ 0.021612 | 0 0.021612 ] Cmatrix=[ 0 | 0 0 ]
New LineCode.336_ACSR_2PH_16KV_2 nphases=2 units=km Rmatrix=[ 0.007574 | 0 0.007574 ] Xmatrix=[ 0.01696 | 0 0.01696 ] Cmatrix=[ 0 | 0 0 ]
New LineCode.4/0_ACSR_3PH_4/0_ACSR_N_16KV_4 nphases=4 units=km Rmatrix=[ 0.010847 | 0 0.010847 | 0 0 0.010847 | 0 0 0 0.010847 ] Xmatrix=[ 0.013808 | 0 0.013808 | 0 0 0.013808 | 0 0 0 0.013808 ] Cmatrix=[ 0 | 0 0 | 0 0 0 | 0 0 0 0 ]
New LineCode.4_CU_3PH_4_CU_N_16KV_4 nphases=4 units=km Rmatrix=[ 0.01853 | 0 0.01853 | 0 0 0.01853 | 0 0 0 0.01853 ] Xmatrix=[ 0.009169 | 0 0.009169 | 0 0 0.009169 | 0 0 0 0.009169 ] Cmatrix=[ 0 | 0 0 | 0 0 0 | 0 0 0 0 ]
New LineCode.6_CU_2PH_6_CU_N_16KV_3_N nphases=3 units=km Rmatrix=[ 0.032848 | 0 0.032848 | 0 0 0.032848 ] Xmatrix=[ 0.010608 | 0 0.010608 | 0 0 0.010608 ] Cmatrix=[ 0 | 0 0 | 0 0 0 ]
New LineCode.1/0_ACSR_3PH_16KV_2 nphases=2 units=km Rmatrix=[ 0.001768 | 0 0.001768 ] Xmatrix=[ 0.001407 | 0 0.001407 ] Cmatrix=[ 0 | 0 0 ]
New LineCode.1/0_CU_3PH_16KV_3 nphases=3 units=km Rmatrix=[ 0.010296 | 0 0.010296 | 0 0 0.010296 ] Xmatrix=[ 0.012823 | 0 0.012823 | 0 0 0.012823 ] Cmatrix=[ 0 | 0 0 | 0 0 0 ]
New LineCode.1/0_CU_3PH_1/0_CU_N_16KV_4 nphases=4 units=km Rmatrix=[ 0.014089 | 0 0.014089 | 0 0 0.014089 | 0 0 0 0.014089 ] Xmatrix=[ 0.015774 | 0 0.015774 | 0 0 0.015774 | 0 0 0 0.015774 ] Cmatrix=[ 0 | 0 0 | 0 0 0 | 0 0 0 0 ]
New LineCode.1/0_AL_1PH_16KV_1 nphases=1 units=km Rmatrix=[ 0.076903 ] Xmatrix=[ 0.023505 ] Cmatrix=[ 0 ]
New LineCode.2_AL_3PH_16KV_3 nphases=3 units=km Rmatrix=[ 0.306559 | 0 0.306559 | 0 0 0.306559 ] Xmatrix=[ 0.064617 | 0 0.064617 | 0 0 0.064617 ] Cmatrix=[ 0 | 0 0 | 0 0 0 ]
New LineCode.1/0_ACSR_1PH_1/0_ACSR_N_16KV_3_N nphases=3 units=km Rmatrix=[ 0.024277 | 0 0.024277 | 0 0 0.024277 ] Xmatrix=[ 0.017545 | 0 0.017545 | 0 0 0.017545 ] Cmatrix=[ 0 | 0 0 | 0 0 0 ]
New LineCode.4/0_CU_3PH_16KV_3 nphases=3 units=km Rmatrix=[ 0.007661 | 0 0.007661 | 0 0 0.007661 ] Xmatrix=[ 0.018035 | 0 0.018035 | 0 0 0.018035 ] Cmatrix=[ 0 | 0 0 | 0 0 0 ]
New LineCode.4_ACSR_2PH_4_ACSR_N_16KV_3_N nphases=3 units=km Rmatrix=[ 0.002894 | 0 0.002894 | 0 0 0.002894 ] Xmatrix=[ 0.000973 | 0 0.000973 | 0 0 0.000973 ] Cmatrix=[ 0 | 0 0 | 0 0 0 ]
New LineCode.2_CLP_ABC_16_3 nphases=3 units=km Rmatrix=[ 0.013497 | 0 0.013497 | 0 0 0.013497 ] Xmatrix=[ 0.002845 | 0 0.002845 | 0 0 0.002845 ] Cmatrix=[ 0 | 0 0 | 0 0 0 ]
New LineCode.1/0_ATW_3PH_16KV_3 nphases=3 units=km Rmatrix=[ 1e-05 | 0 1e-05 | 0 0 1e-05 ] Xmatrix=[ 1e-05 | 0 1e-05 | 0 0 1e-05 ] Cmatrix=[ 0 | 0 0 | 0 0 0 ]
New LineCode.6_CU_1PH_16KV_1 nphases=1 units=km Rmatrix=[ 1e-05 ] Xmatrix=[ 1e-05 ] Cmatrix=[ 0 ]
New LineCode.2_CTW_1PH_16KV_2 nphases=2 units=km Rmatrix=[ 1e-05 | 0 1e-05 ] Xmatrix=[ 1e-05 | 0 1e-05 ] Cmatrix=[ 0 | 0 0 ]
New LineCode.350_EPR_3PH_16KV_3 nphases=3 units=km Rmatrix=[ 1e-05 | 0 1e-05 | 0 0 1e-05 ] Xmatrix=[ 1e-05 | 0 1e-05 | 0 0 1e-05 ] Cmatrix=[ 0 | 0 0 | 0 0 0 ]
New LineCode.2_CTW_2PH_16KV_2 nphases=2 units=km Rmatrix=[ 1e-05 | 0 1e-05 ] Xmatrix=[ 1e-05 | 0 1e-05 ] Cmatrix=[ 0 | 0 0 ]
New LineCode.336_ATW_3PH_16KV_3 nphases=3 units=km Rmatrix=[ 1e-05 | 0 1e-05 | 0 0 1e-05 ] Xmatrix=[ 1e-05 | 0 1e-05 | 0 0 1e-05 ] Cmatrix=[ 0 | 0 0 | 0 0 0 ]
New LineCode.1/0_ATW_1PH_1/0_ATW_N_16KV_3_N nphases=3 units=km Rmatrix=[ 1e-05 | 0 1e-05 | 0 0 1e-05 ] Xmatrix=[ 1e-05 | 0 1e-05 | 0 0 1e-05 ] Cmatrix=[ 0 | 0 0 | 0 0 0 ]
New LineCode.2_CTW_3PH_2_CTW_N_16KV_4 nphases=4 units=km Rmatrix=[ 1e-05 | 0 1e-05 | 0 0 1e-05 | 0 0 0 1e-05 ] Xmatrix=[ 1e-05 | 0 1e-05 | 0 0 1e-05 | 0 0 0 1e-05 ] Cmatrix=[ 0 | 0 0 | 0 0 0 | 0 0 0 0 ]
New LineCode.2_CTW_3PH_16KV_3 nphases=3 units=km Rmatrix=[ 1e-05 | 0 1e-05 | 0 0 1e-05 ] Xmatrix=[ 1e-05 | 0 1e-05 | 0 0 1e-05 ] Cmatrix=[ 0 | 0 0 | 0 0 0 ]
New LineCode.2_CTW_1PH_16KV_3 nphases=3 units=km Rmatrix=[ 1e-05 | 0 1e-05 | 0 0 1e-05 ] Xmatrix=[ 1e-05 | 0 1e-05 | 0 0 1e-05 ] Cmatrix=[ 0 | 0 0 | 0 0 0 ]

! Lines
New Line.ND11527944$1452927EP phases=3 Bus1=44119799.1.2.3 Bus2=-77777744119799.1.2.3 LineCode=350_PILC_3PH_16KV_3 Length=0.067807 units=km
New Line.ND101538625$PFC9662-1CL phases=3 Bus1=101539147.1.2.3 Bus2=-777777101539147.1.2.3 LineCode=350_CLP_3PH_16KV_3 Length=0.014171 units=km
New Line.ND222777285$P5031011-A phases=2 Bus1=44116897.1.2 Bus2=-77777744116897.1.2 LineCode=2_AL_2PH_16KV_2 Length=0.000605 units=km
New Line.S26103Y$ND238663073 phases=2 Bus1=44096247.1.3 Bus2=-77777744096247.1.3 LineCode=4_ACSR_2PH_16KV_2 Length=0.109471 units=km
New Line.ND180164225$ND214722134 phases=3 Bus1=180164225.1.2.3 Bus2=-777777180164225.1.2.3 LineCode=1/0_ACSR_3PH_16KV_3 Length=0.031056 units=km
New Line.11915$4647671E phases=3 Bus1=-8888882185721.1.2.3 Bus2=44078973.1.2.3 LineCode=1000_CLP_3PH_16KV_3 Length=0.339229 units=km
New Line.1674993E$218495684 phases=3 Bus1=44117309.1.2.3 Bus2=218495686.1.2.3 LineCode=1/0_JCN_3PH_16KV_3 Length=0.067864 units=km
New Line.218495684$218495696 phases=3 Bus1=218495687.1.2.3 Bus2=218495699.1.2.3 LineCode=1/0_JCN_3PH_16KV_3 Length=0.002396 units=km
New Line.218495696$BS9621-1 phases=3 Bus1=218495698.1.2.3 Bus2=218495827.1.2.3 LineCode=1/0_JCN_3PH_16KV_3 Length=0.034159 units=km
New Line.190384707$P5491387-1 phases=3 Bus1=190384710.1.2.3 Bus2=44139655.1.2.3 LineCode=1/0_CLP_3PH_16KV_3 Length=0.0017 units=km
New Line.V5031210$ND218957470 phases=3 Bus1=218957470.1.2.3 Bus2=72259852.1.2.3 LineCode=2_CLP_3PH_16KV_3 Length=0.001024 units=km
New Line.BS7163-R$BS7164-1 phases=3 Bus1=108070315.1.2.3 Bus2=108070424.1.2.3 LineCode=2_CLP_3PH_16KV_3 Length=0.007774 units=km
New Line.S5032598$BS7163-L phases=3 Bus1=108070298.1.2.3 Bus2=15417781.1.2.3 LineCode=2_CLP_3PH_16KV_3 Length=0.061929 units=km
New Line.ND170195100$GS6625-3 phases=3 Bus1=84254759.1.2.3 Bus2=170195100.1.2.3 LineCode=2_CLP_3PH_16KV_3 Length=0.030051 units=km
New Line.S5030442$ND170196246 phases=2 Bus1=170196246.1.3 Bus2=170196175.1.3 LineCode=2_CLP_2PH_16KV_2 Length=0.000372 units=km
New Line.180164312$180164371 phases=3 Bus1=180164314.1.2.3 Bus2=180164373.1.2.3 LineCode=1/0_JCN_3PH_16KV_3 Length=0.057838 units=km
New Line.210329326$2320797E phases=2 Bus1=210329273.1.2 Bus2=210329328.1.2 LineCode=1/0_JCN_2PH_16KV_2 Length=0.049325 units=km
New Line.219913029$P5648517-1 phases=3 Bus1=219913032.1.2.3 Bus2=219912994.1.2.3 LineCode=1/0_JCN_3PH_16KV_3 Length=0.001387 units=km
New Line.4128113E$207534E phases=3 Bus1=239675658.1.2.3 Bus2=239675688.1.2.3 LineCode=1/0_ACSR_3PH_16KV_3 Length=0.062029 units=km
New Line.ND174116187$BS6627-1 phases=3 Bus1=174116187.1.2.3 Bus2=84255096.1.2.3 LineCode=2_CLP_3PH_16KV_3 Length=0.003178 units=km
New Line.ND174116187$V5029315VF phases=3 Bus1=174116187.1.2.3 Bus2=90183245.1.2.3 LineCode=2_CLP_3PH_16KV_3 Length=0.066702 units=km
New Line.GS0730-3$ND170195297 phases=3 Bus1=44139906.1.2.3 Bus2=170195297.1.2.3 LineCode=1000_CLP_3PH_16KV_3 Length=0.38054 units=km
New Line.207534E$4452660E phases=3 Bus1=239675688.1.2.3 Bus2=239675719.1.2.3 LineCode=1/0_ACSR_3PH_16KV_3 Length=0.04561 units=km
New Line.BS0249-L$BS3447-1 phases=3 Bus1=44081206.1.2.3 Bus2=44140282.1.2.3 LineCode=1/0_CLP_3PH_16KV_3 Length=0.147542 units=km
New Line.GS0730-1$ND44176822 phases=3 Bus1=44139898.1.2.3 Bus2=44176822.1.2.3 LineCode=1/0_CLP_3PH_16KV_3 Length=0.033792 units=km
New Line.ND170195100$BS6626-1 phases=3 Bus1=170195100.1.2.3 Bus2=84254884.1.2.3 LineCode=2_CLP_3PH_16KV_3 Length=0.007493 units=km
New Line.ND170195100$P5317992-1 phases=3 Bus1=170195100.1.2.3 Bus2=84254949.1.2.3 LineCode=2_CLP_3PH_16KV_3 Length=0.060215 units=km
New Line.V5029315VF$V5031501 phases=3 Bus1=90183245.1.2.3 Bus2=90183216.1.2.3 LineCode=2_CLP_3PH_16KV_3 Length=0.211579 units=km
New Line.P5418216-2$ND170196223 phases=2 Bus1=170196223.2.3 Bus2=90671820.2.3 LineCode=2_CLP_2PH_16KV_2 Length=0.092691 units=km
New Line.ND140444569$ND170195297 phases=3 Bus1=170195297.1.2.3 Bus2=140444569.1.2.3 LineCode=1000_CLP_3PH_16KV_3 Length=0.029483 units=km
New Line.GS0730-4$ND170195395 phases=3 Bus1=44139914.1.2.3 Bus2=170195395.1.2.3 LineCode=1000_CLP_3PH_16KV_3 Length=0.089119 units=km
New Line.180164371$P5639008-1 phases=3 Bus1=180164374.1.2.3 Bus2=180164259.1.2.3 LineCode=1/0_JCN_3PH_16KV_3 Length=0.001708 units=km
New Line.210329326$P5652077-1 phases=2 Bus1=210329329.1.2 Bus2=210329291.1.2 LineCode=1/0_JCN_2PH_16KV_2 Length=0.002285 units=km
New Line.4452660E$207535E phases=3 Bus1=239675719.1.2.3 Bus2=239675750.1.2.3 LineCode=1/0_ACSR_3PH_16KV_3 Length=0.045722 units=km
New Line.GS2304-2$ND41385080 phases=3 Bus1=218377475.1.2.3 Bus2=41385080.1.2.3 LineCode=1/0_JCN_3PH_16KV_3 Length=0.146346 units=km
New Line.ND44176822$P5030433-A phases=3 Bus1=44176822.1.2.3 Bus2=44081317.1.2.3 LineCode=1/0_CLP_3PH_16KV_3 Length=0.070058 units=km
New Line.GS0608-2$ND170195297 phases=3 Bus1=170195297.1.2.3 Bus2=44081549.1.2.3 LineCode=1000_CLP_3PH_16KV_3 Length=0.071272 units=km
New Line.ND44176822$ND44177068 phases=3 Bus1=44176822.1.2.3 Bus2=44177068.1.2.3 LineCode=1/0_CLP_3PH_16KV_3 Length=0.089119 units=km
New Line.BS6627-1$ND95613907 phases=3 Bus1=84255097.1.2.3 Bus2=95613907.1.2.3 LineCode=2_CLP_3PH_16KV_3 Length=0.122958 units=km
New Line.ND44176822$ND99128205 phases=3 Bus1=44176822.1.2.3 Bus2=99128205.1.2.3 LineCode=1/0_CLP_3PH_16KV_3 Length=0.088584 units=km
New Line.BS6626-1$V55146391 phases=3 Bus1=84254885.1.2.3 Bus2=106462691.1.2.3 LineCode=2_CLP_3PH_16KV_3 Length=0.005032 units=km
New Line.BS0563-1$ND140444569 phases=1 Bus1=140444569.1 Bus2=140444519.1 LineCode=2_CLP_1PH_16KV_1 Length=0.032052 units=km
New Line.ND44177068$222355705 phases=3 Bus1=44177068.1.2.3 Bus2=222355707.1.2.3 LineCode=1/0_CLP_3PH_16KV_3 Length=0.204396 units=km
New Line.207535E$ND240358189 phases=3 Bus1=239675750.1.2.3 Bus2=240358189.1.2.3 LineCode=1/0_ACSR_3PH_16KV_3 Length=0.049468 units=km
New Line.ND41385080$BS0636-1 phases=3 Bus1=41385080.1.2.3 Bus2=41331494.1.2.3 LineCode=2_CLP_3PH_16KV_3 Length=0.013931 units=km
New Line.ND99128205$P5032515-1 phases=3 Bus1=99128205.1.2.3 Bus2=44081436.1.2.3 LineCode=1/0_CLP_3PH_16KV_3 Length=0.040188 units=km
New Line.BS3447-1$V5029392 phases=3 Bus1=44140283.1.2.3 Bus2=44140775.1.2.3 LineCode=1/0_CLP_3PH_16KV_3 Length=0.002309 units=km
New Line.ND170195395$V5030323 phases=3 Bus1=170195395.1.2.3 Bus2=44140791.1.2.3 LineCode=1/0_CLP_3PH_16KV_3 Length=0.147324 units=km
New Line.ND44177068$V5029317T1 phases=3 Bus1=44177068.1.2.3 Bus2=44140798.1.2.3 LineCode=1/0_CLP_3PH_16KV_3 Length=0.065048 units=km
New Line.ND170195395$ND44142040 phases=3 Bus1=170195395.1.2.3 Bus2=44142040.1.2.3 LineCode=1000_CLP_3PH_16KV_3 Length=0.134753 units=km
New Line.ND83282724$ND140444569 phases=3 Bus1=140444569.1.2.3 Bus2=83282724.1.2.3 LineCode=1000_CLP_3PH_16KV_3 Length=0.001699 units=km
New Line.ND95613907$V55147081 phases=3 Bus1=95613907.1.2.3 Bus2=95613872.1.2.3 LineCode=2_CLP_3PH_16KV_3 Length=0.052009 units=km
New Line.ND95613907$V55147082 phases=3 Bus1=95613907.1.2.3 Bus2=95613893.1.2.3 LineCode=2_CLP_3PH_16KV_3 Length=0.091952 units=km
New Line.ND99128205$V50295861 phases=1 Bus1=99128205.2 Bus2=99128192.2 LineCode=2_CLP_1PH_16KV_1 Length=0.001965 units=km
New Line.219414410$4890269E phases=3 Bus1=219414309.1.2.3 Bus2=219414412.1.2.3 LineCode=1/0_JCN_3PH_16KV_3 Length=0.008809 units=km
New Line.ND83282724$GS0657-4 phases=3 Bus1=83282724.1.2.3 Bus2=15417333.1.2.3 LineCode=1000_CLP_3PH_16KV_3 Length=0.008177 units=km
New Line.ND44142040$V5031612PT phases=3 Bus1=44142040.1.2.3 Bus2=175423405.1.2.3 LineCode=1000_CLP_3PH_16KV_3 Length=0.323032 units=km
New Line.ND240358189$4041293E phases=4 Bus1=240358189.0.1.2.3 Bus2=239675786.0.1.2.3 LineCode=1/0_ACSR_3PH_1/0_ACSR_N_16KV_4 Length=0.00651 units=km
New Line.ND240358189$PS0130 phases=3 Bus1=240358189.1.2.3 Bus2=240358102.1.2.3 LineCode=1/0_ACSR_3PH_16KV_3 Length=0.01047 units=km
New Line.V5029317T1$P5032934-1 phases=3 Bus1=44140798.1.2.3 Bus2=44081484.1.2.3 LineCode=1/0_CLP_3PH_16KV_3 Length=0.062057 units=km
New Line.ND44142040$ND44177390 phases=3 Bus1=44142040.1.2.3 Bus2=44177390.1.2.3 LineCode=1/0_CLP_3PH_16KV_3 Length=0.028159 units=km
New Line.219414398$219414410 phases=3 Bus1=219414413.1.2.3 Bus2=219414401.1.2.3 LineCode=1/0_JCN_3PH_16KV_3 Length=0.004556 units=km
New Line.ND97037413$FD49810 phases=3 Bus1=97037413.1.2.3 Bus2=97037388.1.2.3 LineCode=2_ACSR_3PH_16KV_3 Length=0.03716 units=km
New Line.219414362$219414398 phases=3 Bus1=219414400.1.2.3 Bus2=219414364.1.2.3 LineCode=1/0_JCN_3PH_16KV_3 Length=0.036628 units=km
New Line.FD49810$P5418346 phases=3 Bus1=97037389.1.2.3 Bus2=97037428.1.2.3 LineCode=1/0_CLP_3PH_16KV_3 Length=0.115871 units=km
New Line.219414362$P5704254-1 phases=3 Bus1=219414365.1.2.3 Bus2=219414327.1.2.3 LineCode=1/0_JCN_3PH_16KV_3 Length=0.001432 units=km
New Line.ND140444591$BS0563-1 phases=1 Bus1=140444520.1 Bus2=140444591.1 LineCode=2_CLP_1PH_16KV_1 Length=1.01764 units=km
New Line.V5031612PT$RCS0729-4 phases=3 Bus1=175423405.1.2.3 Bus2=41296563.1.2.3 LineCode=1000_CLP_3PH_16KV_3 Length=0.074869 units=km
New Line.ND44177390$P5395540-1 phases=3 Bus1=44177390.1.2.3 Bus2=44082100.1.2.3 LineCode=1/0_CLP_3PH_16KV_3 Length=0.246193 units=km
New Line.222355705$P5491397 phases=3 Bus1=222355708.1.2.3 Bus2=44139534.1.2.3 LineCode=1/0_CLP_3PH_16KV_3 Length=0.00301 units=km
New Line.ND44177390$V5030016 phases=3 Bus1=44177390.1.2.3 Bus2=44140940.1.2.3 LineCode=1/0_CLP_3PH_16KV_3 Length=0.019158 units=km
New Line.BS0636-1$V50313211 phases=3 Bus1=41331495.1.2.3 Bus2=74831862.1.2.3 LineCode=2_CLP_3PH_16KV_3 Length=0.016205 units=km
New Line.ND140444591$V5029915T1 phases=1 Bus1=140444591.1 Bus2=140444603.1 LineCode=2_CLP_1PH_16KV_1 Length=0.003897 units=km
New Line.4041293E$P5317510-1 phases=3 Bus1=239675787.1.2.3 Bus2=239675848.1.2.3 LineCode=1/0_JCN_3PH_16KV_3 Length=0.028839 units=km
New Line.FD49370$P5031315-B phases=2 Bus1=44095732.1.3 Bus2=44095895.1.3 LineCode=2_AL_2PH_16KV_2 Length=0.003057 units=km
New Line.217929158$1324161E phases=3 Bus1=217929100.1.2.3 Bus2=217929160.1.2.3 LineCode=1/0_JCN_3PH_16KV_3 Length=0.053157 units=km
New Line.P5418194-1$1453591E phases=3 Bus1=69810786.1.2.3 Bus2=69810732.1.2.3 LineCode=2_CLP_3PH_16KV_3 Length=0.054333 units=km
New Line.217929158$P5657756-1 phases=3 Bus1=217929161.1.2.3 Bus2=217929123.1.2.3 LineCode=1/0_JCN_3PH_16KV_3 Length=0.00294 units=km
New Line.B5032071-2$1371934E phases=2 Bus1=44095770.1.3 Bus2=44117834.1.3 LineCode=2_AL_2PH_16KV_2 Length=0.023556 units=km
New Line.P5418227-1$V50313211 phases=3 Bus1=74831862.1.2.3 Bus2=74831692.1.2.3 LineCode=2_CLP_3PH_16KV_3 Length=0.17641 units=km
New Line.V50299151$ND140444591 phases=1 Bus1=140444591.1 Bus2=83282711.1 LineCode=2_CLP_1PH_16KV_1 Length=0.0109 units=km
New Line.P5031315-A$P5031314-B phases=2 Bus1=44095886.1.3 Bus2=140826476.1.3 LineCode=2_AL_2PH_16KV_2 Length=0.082578 units=km
New Line.B5032490-2$1665299E phases=2 Bus1=44096800.1.2 Bus2=44118194.1.2 LineCode=1/0_AL_2PH_16KV_2 Length=0.23653 units=km
New Line.4199265EP$GS0150-3 phases=3 Bus1=44119826.1.2.3 Bus2=242483379.1.2.3 LineCode=350_CLP_3PH_16KV_3 Length=0.058086 units=km
New Line.P5031673-1$PH388E phases=2 Bus1=44118520.2.3 Bus2=44117753.2.3 LineCode=2_AL_2PH_16KV_2 Length=0.047371 units=km
New Line.4370230E$GS0510-4 phases=3 Bus1=44118824.1.2.3 Bus2=44079788.1.2.3 LineCode=1000_JCN_3PH_16KV_3 Length=0.082555 units=km
New Line.P5031314-A$P5031312-A phases=2 Bus1=140826467.1.3 Bus2=140826559.1.3 LineCode=2_AL_2PH_16KV_2 Length=0.444006 units=km
New Line.1481992E$237838422 phases=2 Bus1=164507505.1.2 Bus2=237838424.1.2 LineCode=1/0_JCN_2PH_16KV_2 Length=0.050846 units=km
New Line.B5032676-2$2178532E phases=2 Bus1=44096813.1.2 Bus2=44118266.1.2 LineCode=2_AL_2PH_16KV_2 Length=0.076521 units=km
New Line.237838422$P5606379-1 phases=2 Bus1=237838425.1.2 Bus2=164507530.1.2 LineCode=1/0_JCN_2PH_16KV_2 Length=0.001312 units=km
New Line.P5031717-2$1946910E phases=3 Bus1=44097180.1.2.3 Bus2=44117978.1.2.3 LineCode=1/0_AL_3PH_16KV_3 Length=0.02273 units=km
New Line.ND44176728$GS0150-2 phases=3 Bus1=242483370.1.2.3 Bus2=44176728.1.2.3 LineCode=350_CLP_3PH_16KV_3 Length=0.171802 units=km
New Line.ND44176728$GS1944-3 phases=3 Bus1=44176728.1.2.3 Bus2=154008956.1.2.3 LineCode=350_CLP_3PH_16KV_3 Length=0.229399 units=km
New Line.S8532Y$GS0150-1 phases=3 Bus1=242483361.1.2.3 Bus2=242483496.1.2.3 LineCode=350_JCN_3PH_16KV_3 Length=0.056681 units=km
New Line.P5581169-2$P5031312-B phases=2 Bus1=140826568.1.3 Bus2=44096129.1.3 LineCode=2_AL_2PH_16KV_2 Length=0.020025 units=km
New Line.ND44176728$BS0179-1 phases=2 Bus1=44176728.2.3 Bus2=44097209.2.3 LineCode=1/0_CLP_2PH_16KV_2 Length=0.019279 units=km
New Line.RCS9605$S8532Y phases=4 Bus1=242483495.0.1.2.3 Bus2=243193494.0.1.2.3 LineCode=336_ACSR_3PH_336_ACSR_N_16KV_4 Length=0.005775 units=km
New Line.BS0179-1$ND44177332 phases=2 Bus1=44097210.2.3 Bus2=44177332.2.3 LineCode=1/0_CLP_2PH_16KV_2 Length=0.013888 units=km
New Line.B5031713-2$ND44177332 phases=2 Bus1=44177332.2.3 Bus2=44097412.2.3 LineCode=1/0_CLP_2PH_16KV_2 Length=0.087115 units=km
New Line.P5031925-2$1947072E phases=2 Bus1=44097193.1.3 Bus2=44117906.1.3 LineCode=2_AL_2PH_16KV_2 Length=0.029936 units=km
New Line.ND44177332$S5032335T1 phases=2 Bus1=44177332.2.3 Bus2=44141133.2.3 LineCode=1/0_CLP_2PH_16KV_2 Length=0.009571 units=km
New Line.GS1944-2$222533722 phases=2 Bus1=154008948.2.3 Bus2=222533724.2.3 LineCode=1/0_CLP_2PH_16KV_2 Length=0.08279 units=km
New Line.4961083E$RCS9605 phases=4 Bus1=243193469.0.1.2.3 Bus2=241154587.0.1.2.3 LineCode=336_ACSR_3PH_336_ACSR_N_16KV_4 Length=0.024499 units=km
New Line.4282881E$4961083E phases=4 Bus1=241154587.0.1.2.3 Bus2=241154556.0.1.2.3 LineCode=336_ACSR_3PH_336_ACSR_N_16KV_4 Length=0.071407 units=km
New Line.GS1944-1$4572752E phases=3 Bus1=154008940.1.2.3 Bus2=44119881.1.2.3 LineCode=350_CLP_3PH_16KV_3 Length=0.137098 units=km
New Line.4424819E$4282881E phases=4 Bus1=241154556.0.1.2.3 Bus2=241154526.0.1.2.3 LineCode=336_ACSR_3PH_336_ACSR_N_16KV_4 Length=0.059042 units=km
New Line.222533722$PME0489-1 phases=2 Bus1=222533725.2.3 Bus2=44119752.2.3 LineCode=1/0_CLP_2PH_16KV_2 Length=0.00071 units=km
New Line.B5031713-1$ND44177689 phases=2 Bus1=44097403.2.3 Bus2=44177689.2.3 LineCode=1/0_CLP_2PH_16KV_2 Length=0.103744 units=km
New Line.ND241154515$4424819E phases=4 Bus1=241154526.0.1.2.3 Bus2=241154515.0.1.2.3 LineCode=336_ACSR_3PH_336_ACSR_N_16KV_4 Length=0.061772 units=km
New Line.B5031714-1$ND44177689 phases=2 Bus1=44177689.2.3 Bus2=44097259.2.3 LineCode=1/0_CLP_2PH_16KV_2 Length=0.109575 units=km
New Line.B5031715-1$ND44177689 phases=2 Bus1=44177689.2.3 Bus2=44097331.2.3 LineCode=1/0_CLP_2PH_16KV_2 Length=0.142845 units=km
New Line.222533734$PME0489-1 phases=2 Bus1=44119753.2.3 Bus2=222533737.2.3 LineCode=1/0_CLP_2PH_16KV_2 Length=0.000949 units=km
New Line.FD49568$241518214 phases=3 Bus1=44082145.1.2.3 Bus2=241518216.1.2.3 LineCode=1/0_JCN_3PH_16KV_3 Length=0.035814 units=km
New Line.ND44177029$222533734 phases=2 Bus1=222533736.2.3 Bus2=44177029.2.3 LineCode=1/0_CLP_2PH_16KV_2 Length=0.014139 units=km
New Line.ND44177029$222489588 phases=1 Bus1=44177029.2 Bus2=222489590.2 LineCode=1/0_CLP_1PH_16KV_1 Length=0.122112 units=km
New Line.ND44177029$P5031581-B phases=2 Bus1=44177029.2.3 Bus2=44117325.2.3 LineCode=1/0_CLP_2PH_16KV_2 Length=0.066089 units=km
New Line.V5030955$GS0510-2 phases=3 Bus1=44079764.1.2.3 Bus2=70555376.1.2.3 LineCode=1/0_CLP_3PH_16KV_3 Length=0.016288 units=km
New Line.241518214$P5647811-1 phases=3 Bus1=241518217.1.2.3 Bus2=168772225.1.2.3 LineCode=1/0_JCN_3PH_16KV_3 Length=0.002409 units=km
New Line.GS0510-1$GS2305-1 phases=3 Bus1=44079772.1.2.3 Bus2=218615558.1.2.3 LineCode=1000_JCN_3PH_16KV_3 Length=0.285859 units=km
New Line.FD02294$P5438317-B phases=3 Bus1=28869604.1.2.3 Bus2=239758655.1.2.3 LineCode=350_CLP_3PH_16KV_3 Length=0.100819 units=km
New Line.P5395536-1$V5030955 phases=3 Bus1=70555376.1.2.3 Bus2=44079930.1.2.3 LineCode=1/0_CLP_3PH_16KV_3 Length=0.235478 units=km
New Line.1675130E$GS0646-4 phases=3 Bus1=44118912.1.2.3 Bus2=44082202.1.2.3 LineCode=350_AL_3PH_16KV_3 Length=0.014638 units=km
New Line.2144071E$P5438317-A phases=3 Bus1=239758646.1.2.3 Bus2=28869334.1.2.3 LineCode=350_CLP_3PH_16KV_3 Length=0.028167 units=km
New Line.GS2305-2$ND107802788 phases=3 Bus1=218615567.1.2.3 Bus2=107802788.1.2.3 LineCode=1/0_JCN_3PH_16KV_3 Length=0.148435 units=km
New Line.BS0218-1$GS0646-3 phases=3 Bus1=44082194.1.2.3 Bus2=44095190.1.2.3 LineCode=350_AL_3PH_16KV_3 Length=0.052178 units=km
New Line.ND27460477$ND241649959 phases=4 Bus1=27460477.0.1.2.3 Bus2=241649959.0.1.2.3 LineCode=1/0_ACSR_3PH_1/0_ACSR_N_16KV_4 Length=0.072023 units=km
New Line.ND241649959$4863248E phases=4 Bus1=241649959.0.1.2.3 Bus2=241649919.0.1.2.3 LineCode=1/0_ACSR_3PH_1/0_ACSR_N_16KV_4 Length=0.046152 units=km
New Line.222489588$P5494116-2 phases=1 Bus1=222489591.2 Bus2=44139257.2 LineCode=1/0_CLP_1PH_16KV_1 Length=0.001108 units=km
New Line.P5031581-A$224825319 phases=2 Bus1=44117334.2.3 Bus2=224825321.2.3 LineCode=1/0_CLP_2PH_16KV_2 Length=0.109099 units=km
New Line.4863248E$ND241650332 phases=4 Bus1=241649919.0.1.2.3 Bus2=241650332.0.1.2.3 LineCode=1/0_ACSR_3PH_1/0_ACSR_N_16KV_4 Length=0.014539 units=km
New Line.ND241650332$ND241650229 phases=4 Bus1=241650332.0.1.2.3 Bus2=241650229.0.1.2.3 LineCode=1/0_ACSR_3PH_1/0_ACSR_N_16KV_4 Length=0.089145 units=km
New Line.ND107802788$214319037 phases=3 Bus1=107802788.1.2.3 Bus2=214319039.1.2.3 LineCode=2_CLP_3PH_16KV_3 Length=0.183483 units=km
New Line.237838449$GS0646-2 phases=3 Bus1=44082178.1.2.3 Bus2=237838451.1.2.3 LineCode=1/0_JCN_3PH_16KV_3 Length=0.090362 units=km
New Line.849610E$BS0491-T phases=3 Bus1=44118925.1.2.3 Bus2=44095253.1.2.3 LineCode=1/0_CLP_3PH_16KV_3 Length=0.00679 units=km
New Line.GS3123-1$ND107802788 phases=3 Bus1=107802788.1.2.3 Bus2=94588377.1.2.3 LineCode=2_CLP_3PH_16KV_3 Length=0.02858 units=km
New Line.BS0197-T$PH611E phases=3 Bus1=44118938.1.2.3 Bus2=107617907.1.2.3 LineCode=1/0_CLP_3PH_16KV_3 Length=0.061977 units=km
New Line.GS2305-4$ND222842701 phases=3 Bus1=218615585.1.2.3 Bus2=222842701.1.2.3 LineCode=1000_JCN_3PH_16KV_3 Length=0.106017 units=km
New Line.GS0646-1$ND44177948 phases=3 Bus1=44082186.1.2.3 Bus2=44177948.1.2.3 LineCode=350_AL_3PH_16KV_3 Length=0.022774 units=km
New Line.224825319$P5031637-A phases=2 Bus1=224825322.2.3 Bus2=223786097.2.3 LineCode=1/0_CLP_2PH_16KV_2 Length=0.00168 units=km
New Line.ND241650229$PS0138 phases=4 Bus1=241650229.0.1.2.3 Bus2=241650895.0.1.2.3 LineCode=1/0_ACSR_3PH_1/0_ACSR_N_16KV_4 Length=0.037644 units=km
New Line.ND239450252$2320817E phases=2 Bus1=239450252.1.2 Bus2=241855999.1.2 LineCode=1/0_ACSR_1PH_16KV_2 Length=0.077019 units=km
New Line.849613E$RCS0724 phases=4 Bus1=12875263.0.1.2.3 Bus2=185038302.0.1.2.3 LineCode=1/0_ACSR_3PH_1/0_ACSR_N_16KV_4 Length=0.033087 units=km
New Line.P5648611-A$237838449 phases=3 Bus1=237838452.1.2.3 Bus2=207271403.1.2.3 LineCode=1/0_JCN_3PH_16KV_3 Length=0.001739 units=km
New Line.ND222842701$RCS0175-2 phases=3 Bus1=222842701.1.2.3 Bus2=273890708.1.2.3 LineCode=1000_JCN_3PH_16KV_3 Length=0.10515 units=km
New Line.ND44177948$P5471441-1 phases=3 Bus1=44177948.1.2.3 Bus2=44138325.1.2.3 LineCode=350_AL_3PH_16KV_3 Length=0.0837 units=km
New Line.ND44177948$V5031243 phases=3 Bus1=44177948.1.2.3 Bus2=44140951.1.2.3 LineCode=350_AL_3PH_16KV_3 Length=0.061487 units=km
New Line.214319037$P5521260-1 phases=3 Bus1=214319040.1.2.3 Bus2=71212893.1.2.3 LineCode=2_CLP_3PH_16KV_3 Length=0.002204 units=km
New Line.GS3123-1$V55145091 phases=3 Bus1=94588378.1.2.3 Bus2=94588458.1.2.3 LineCode=2_CLP_3PH_16KV_3 Length=0.00314 units=km
New Line.BS0491-R$P5032512-1 phases=3 Bus1=44095236.1.2.3 Bus2=44095343.1.2.3 LineCode=1/0_CLP_3PH_16KV_3 Length=0.115422 units=km
New Line.P5317476-1$BS0491-L phases=3 Bus1=44095245.1.2.3 Bus2=44095391.1.2.3 LineCode=1/0_CLP_3PH_16KV_3 Length=0.004784 units=km
New Line.BS0197-L$P5317370-1 phases=3 Bus1=107617890.1.2.3 Bus2=44095546.1.2.3 LineCode=1/0_CLP_3PH_16KV_3 Length=0.10325 units=km
New Line.V5032865$BS0197-R phases=3 Bus1=107617899.1.2.3 Bus2=44140985.1.2.3 LineCode=1/0_CLP_3PH_16KV_3 Length=0.036312 units=km
New Line.237838476$P5648611-B phases=3 Bus1=207271386.1.2.3 Bus2=237838479.1.2.3 LineCode=1/0_JCN_3PH_16KV_3 Length=0.086152 units=km
New Line.PS0488$4647671E phases=3 Bus1=44078972.1.2.3 Bus2=44140509.1.2.3 LineCode=653_ACSR_3PH_16KV_3 Length=0.14962 units=km