! OpenDSS script generated from multiconductor network
Clear

New Circuit.mc_network basekv=12.0 pu=1.000000 angle=0.00 frequency=60.0 phases=3 Mvasc3=143993 Mvasc1=47997.6
~ bus1=-8888882154064.1.2.3

! Line codes
New LineCode.653_ACSR_3PH_653_ACSR_N_12KV_4 nphases=4 units=km Rmatrix=[ 0.000467 | 0 0.000467 | 0 0 0.000467 | 0 0 0 0.000467 ] Xmatrix=[ 0.001588 | 0 0.001588 | 0 0 0.001588 | 0 0 0 0.001588 ] Cmatrix=[ 0 | 0 0 | 0 0 0 | 0 0 0 0 ]
New LineCode.750_CLP_ABC_12_3 nphases=3 units=km Rmatrix=[ 0.032857 | 0 0.032857 | 0 0 0.032857 ] Xmatrix=[ 0.040353 | 0 0.040353 | 0 0 0.040353 ] Cmatrix=[ 0 | 0 0 | 0 0 0 ]
New LineCode.1000_JCN_3PH_12KV_3 nphases=3 units=km Rmatrix=[ 0.007978 | 0 0.007978 | 0 0 0.007978 ] Xmatrix=[ 0.012077 | 0 0.012077 | 0 0 0.012077 ] Cmatrix=[ 0 | 0 0 | 0 0 0 ]
New LineCode.1/0_JCN_3PH_12KV_3 nphases=3 units=km Rmatrix=[ 0.001908 | 0 0.001908 | 0 0 0.001908 ] Xmatrix=[ 0.000583 | 0 0.000583 | 0 0 0.000583 ] Cmatrix=[ 0 | 0 0 | 0 0 0 ]
New LineCode.2_CLP_3PH_12KV_3 nphases=3 units=km Rmatrix=[ 0.003059 | 0 0.003059 | 0 0 0.003059 ] Xmatrix=[ 0.000645 | 0 0.000645 | 0 0 0.000645 ] Cmatrix=[ 0 | 0 0 | 0 0 0 ]
New LineCode.1/0_CLP_3PH_12KV_3 nphases=3 units=km Rmatrix=[ 0.099868 | 0 0.099868 | 0 0 0.099868 ] Xmatrix=[ 0.030524 | 0 0.030524 | 0 0 0.030524 ] Cmatrix=[ 0 | 0 0 | 0 0 0 ]
New LineCode.750_CLP_3PH_12KV_3 nphases=3 units=km Rmatrix=[ 0.030765 | 0 0.030765 | 0 0 0.030765 ] Xmatrix=[ 0.037783 | 0 0.037783 | 0 0 0.037783 ] Cmatrix=[ 0 | 0 0 | 0 0 0 ]
New LineCode.4_ACSR_3PH_12KV_3 nphases=3 units=km Rmatrix=[ 0.231739 | 0 0.231739 | 0 0 0.231739 ] Xmatrix=[ 0.085035 | 0 0.085035 | 0 0 0.085035 ] Cmatrix=[ 0 | 0 0 | 0 0 0 ]
New LineCode.653_ACSR_3PH_12KV_3 nphases=3 units=km Rmatrix=[ 0.010825 | 0 0.010825 | 0 0 0.010825 ] Xmatrix=[ 0.042025 | 0 0.042025 | 0 0 0.042025 ] Cmatrix=[ 0 | 0 0 | 0 0 0 ]
New LineCode.1/0_ACSR_3PH_12KV_3 nphases=3 units=km Rmatrix=[ 0.013289 | 0 0.013289 | 0 0 0.013289 ] Xmatrix=[ 0.010581 | 0 0.010581 | 0 0 0.010581 ] Cmatrix=[ 0 | 0 0 | 0 0 0 ]
New LineCode.1/0_ACSR_2PH_12KV_2 nphases=2 units=km Rmatrix=[ 0.027645 | 0 0.027645 ] Xmatrix=[ 0.022011 | 0 0.022011 ] Cmatrix=[ 0 | 0 0 ]
New LineCode.2_ACSR_3PH_12KV_3 nphases=3 units=km Rmatrix=[ 0.002572 | 0 0.002572 | 0 0 0.002572 ] Xmatrix=[ 0.001383 | 0 0.001383 | 0 0 0.001383 ] Cmatrix=[ 0 | 0 0 | 0 0 0 ]
New LineCode.350_AL_3PH_12KV_3 nphases=3 units=km Rmatrix=[ 0.046703 | 0 0.046703 | 0 0 0.046703 ] Xmatrix=[ 0.035484 | 0 0.035484 | 0 0 0.035484 ] Cmatrix=[ 0 | 0 0 | 0 0 0 ]
New LineCode.2_CIC_2PH_12KV_2 nphases=2 units=km Rmatrix=[ 0.080301 | 0 0.080301 ] Xmatrix=[ 0.016926 | 0 0.016926 ] Cmatrix=[ 0 | 0 0 ]
New LineCode.750_CLP_1PH_12KV_1 nphases=1 units=km Rmatrix=[ 0.000812 ] Xmatrix=[ 0.000997 ] Cmatrix=[ 0 ]
New LineCode.2_CLP_2PH_12KV_2 nphases=2 units=km Rmatrix=[ 0.17986 | 0 0.17986 ] Xmatrix=[ 0.037911 | 0 0.037911 ] Cmatrix=[ 0 | 0 0 ]
New LineCode.350_CLP_3PH_12KV_3 nphases=3 units=km Rmatrix=[ 0.001879 | 0 0.001879 | 0 0 0.001879 ] Xmatrix=[ 0.001428 | 0 0.001428 | 0 0 0.001428 ] Cmatrix=[ 0 | 0 0 | 0 0 0 ]
New LineCode.2_AL_2PH_12KV_2 nphases=2 units=km Rmatrix=[ 0.098794 | 0 0.098794 ] Xmatrix=[ 0.020824 | 0 0.020824 ] Cmatrix=[ 0 | 0 0 ]
New LineCode.750_JCN_3PH_12KV_3 nphases=3 units=km Rmatrix=[ 0.040716 | 0 0.040716 | 0 0 0.040716 ] Xmatrix=[ 0.050005 | 0 0.050005 | 0 0 0.050005 ] Cmatrix=[ 0 | 0 0 | 0 0 0 ]
New LineCode.2_AL_3PH_12KV_3 nphases=3 units=km Rmatrix=[ 0.004582 | 0 0.004582 | 0 0 0.004582 ] Xmatrix=[ 0.000966 | 0 0.000966 | 0 0 0.000966 ] Cmatrix=[ 0 | 0 0 | 0 0 0 ]
New LineCode.4_CU_3PH_12KV_3 nphases=3 units=km Rmatrix=[ 0.002368 | 0 0.002368 | 0 0 0.002368 ] Xmatrix=[ 0.001291 | 0 0.001291 | 0 0 0.001291 ] Cmatrix=[ 0 | 0 0 | 0 0 0 ]
New LineCode.336_ACSR_3PH_12KV_3 nphases=3 units=km Rmatrix=[ 0.07923 | 0 0.07923 | 0 0 0.07923 ] Xmatrix=[ 0.177425 | 0 0.177425 | 0 0 0.177425 ] Cmatrix=[ 0 | 0 0 | 0 0 0 ]
New LineCode.336_ACSR_3PH_336_ACSR_N_12KV_4 nphases=4 units=km Rmatrix=[ 0.005251 | 0 0.005251 | 0 0 0.005251 | 0 0 0 0.005251 ] Xmatrix=[ 0.010471 | 0 0.010471 | 0 0 0.010471 | 0 0 0 0.010471 ] Cmatrix=[ 0 | 0 0 | 0 0 0 | 0 0 0 0 ]
New LineCode.1000_JCN_C_3PH_12KV_3 nphases=3 units=km Rmatrix=[ 1e-05 | 0 1e-05 | 0 0 1e-05 ] Xmatrix=[ 1e-05 | 0 1e-05 | 0 0 1e-05 ] Cmatrix=[ 0 | 0 0 | 0 0 0 ]
New LineCode.UNK_UNK_3PH_12KV_3 nphases=3 units=km Rmatrix=[ 1e-05 | 0 1e-05 | 0 0 1e-05 ] Xmatrix=[ 1e-05 | 0 1e-05 | 0 0 1e-05 ] Cmatrix=[ 0 | 0 0 | 0 0 0 ]
New LineCode.1/0_ATW_3PH_12KV_3 nphases=3 units=km Rmatrix=[ 1e-05 | 0 1e-05 | 0 0 1e-05 ] Xmatrix=[ 1e-05 | 0 1e-05 | 0 0 1e-05 ] Cmatrix=[ 0 | 0 0 | 0 0 0 ]
New LineCode.1/0_ATW_2PH_12KV_2 nphases=2 units=km Rmatrix=[ 1e-05 | 0 1e-05 ] Xmatrix=[ 1e-05 | 0 1e-05 ] Cmatrix=[ 0 | 0 0 ]
New LineCode.954_ACSR_3PH_12KV_3 nphases=3 units=km Rmatrix=[ 1e-05 | 0 1e-05 | 0 0 1e-05 ] Xmatrix=[ 1e-05 | 0 1e-05 | 0 0 1e-05 ] Cmatrix=[ 0 | 0 0 | 0 0 0 ]

! Lines
New Line.PS0303$ND214898051 phases=4 Bus1=36446720.0.1.2.3 Bus2=214898051.0.1.2.3 LineCode=653_ACSR_3PH_653_ACSR_N_12KV_4 Length=0.023814 units=km
New Line.GS0690-2$RCS0691-3 phases=3 Bus1=60472823.1.2.3 Bus2=217075158.1.2.3 LineCode=750_CLP_ABC_12_3 Length=0.291866 units=km
New Line.RCSG035-4$GS2034-2 phases=3 Bus1=241420262.1.2.3 Bus2=241420431.1.2.3 LineCode=1000_JCN_3PH_12KV_3 Length=0.094236 units=km
New Line.RCSG035-2$241420652 phases=3 Bus1=241420407.1.2.3 Bus2=241420654.1.2.3 LineCode=1/0_JCN_3PH_12KV_3 Length=0.049063 units=km
New Line.241420652$P5718295-1 phases=3 Bus1=241420655.1.2.3 Bus2=241420608.1.2.3 LineCode=1/0_JCN_3PH_12KV_3 Length=0.002095 units=km
New Line.PH543E$J695A-2P phases=3 Bus1=36446385.1.2.3 Bus2=150230291.1.2.3 LineCode=2_CLP_3PH_12KV_3 Length=0.058099 units=km
New Line.187359139$P5631090-1 phases=3 Bus1=187359142.1.2.3 Bus2=36444301.1.2.3 LineCode=1/0_JCN_3PH_12KV_3 Length=0.005711 units=km
New Line.359E$243522462 phases=3 Bus1=243522348.1.2.3 Bus2=243522464.1.2.3 LineCode=1/0_JCN_3PH_12KV_3 Length=0.077073 units=km
New Line.ND36477956$J542A-2P phases=3 Bus1=164475251.1.2.3 Bus2=36477956.1.2.3 LineCode=1/0_JCN_3PH_12KV_3 Length=0.070058 units=km
New Line.ND36477956$196552787 phases=3 Bus1=36477956.1.2.3 Bus2=196552789.1.2.3 LineCode=1/0_JCN_3PH_12KV_3 Length=0.054754 units=km
New Line.ND36477956$197241708 phases=3 Bus1=36477956.1.2.3 Bus2=197241710.1.2.3 LineCode=1/0_JCN_3PH_12KV_3 Length=0.033201 units=km
New Line.J542A-1P$668E phases=3 Bus1=164475235.1.2.3 Bus2=36446581.1.2.3 LineCode=1/0_CLP_3PH_12KV_3 Length=0.366569 units=km
New Line.ND215062274$GS0808-4 phases=3 Bus1=201086258.1.2.3 Bus2=215062274.1.2.3 LineCode=750_CLP_3PH_12KV_3 Length=0.095808 units=km
New Line.243522462$P5791329-1 phases=3 Bus1=243522465.1.2.3 Bus2=243522418.1.2.3 LineCode=1/0_JCN_3PH_12KV_3 Length=0.002717 units=km
New Line.1949967ESMD$ND36477911 phases=3 Bus1=36443632.1.2.3 Bus2=36477911.1.2.3 LineCode=1/0_CLP_3PH_12KV_3 Length=0.006312 units=km
New Line.ND36477935$GS0808-2 phases=3 Bus1=201086240.1.2.3 Bus2=36477935.1.2.3 LineCode=750_CLP_3PH_12KV_3 Length=0.014109 units=km
New Line.J695A-3P$P5631697-1 phases=3 Bus1=150230275.1.2.3 Bus2=152081179.1.2.3 LineCode=2_CLP_3PH_12KV_3 Length=0.11633 units=km
New Line.197241708$P5154593-1 phases=3 Bus1=197241711.1.2.3 Bus2=153957210.1.2.3 LineCode=1/0_JCN_3PH_12KV_3 Length=0.003123 units=km
New Line.ND196014651$ND215062274 phases=3 Bus1=215062274.1.2.3 Bus2=196014651.1.2.3 LineCode=750_CLP_3PH_12KV_3 Length=0.150297 units=km
New Line.BS0901-T$GS0808-1 phases=3 Bus1=201086231.1.2.3 Bus2=215062111.1.2.3 LineCode=2_CLP_3PH_12KV_3 Length=0.108435 units=km
New Line.ND36477935$GS0809-2 phases=3 Bus1=36477935.1.2.3 Bus2=289625906.1.2.3 LineCode=750_CLP_3PH_12KV_3 Length=0.17866 units=km
New Line.ND36477911$BS0252-T phases=3 Bus1=36477911.1.2.3 Bus2=36420761.1.2.3 LineCode=1/0_CLP_3PH_12KV_3 Length=0.152895 units=km
New Line.196552787$P5154592-1 phases=3 Bus1=196552790.1.2.3 Bus2=36445330.1.2.3 LineCode=1/0_JCN_3PH_12KV_3 Length=0.001998 units=km
New Line.P5511644-1$J695A-1P phases=3 Bus1=150230267.1.2.3 Bus2=36446597.1.2.3 LineCode=2_CLP_3PH_12KV_3 Length=0.140977 units=km
New Line.ND36477911$36447024 phases=3 Bus1=36477911.1.2.3 Bus2=36447026.1.2.3 LineCode=2_CLP_3PH_12KV_3 Length=0.058375 units=km
New Line.36447212$ND36477935 phases=3 Bus1=36477935.1.2.3 Bus2=36447214.1.2.3 LineCode=2_CLP_3PH_12KV_3 Length=0.315024 units=km
New Line.362E$GS0179-1 phases=3 Bus1=149236927.1.2.3 Bus2=149237586.1.2.3 LineCode=750_CLP_3PH_12KV_3 Length=0.39239 units=km
New Line.908E$216748980 phases=3 Bus1=216748911.1.2.3 Bus2=216748982.1.2.3 LineCode=1/0_JCN_3PH_12KV_3 Length=0.022155 units=km
New Line.216748980$P5717394-1 phases=3 Bus1=216748983.1.2.3 Bus2=216748936.1.2.3 LineCode=1/0_JCN_3PH_12KV_3 Length=0.002215 units=km
New Line.4530459E$ND94427142 phases=3 Bus1=94425097.1.2.3 Bus2=94427142.1.2.3 LineCode=750_CLP_3PH_12KV_3 Length=0.067598 units=km
New Line.ND94427142$ND137679362 phases=3 Bus1=94427142.1.2.3 Bus2=137679362.1.2.3 LineCode=750_CLP_3PH_12KV_3 Length=0.406368 units=km
New Line.ND94427142$GS5924-3 phases=3 Bus1=94427142.1.2.3 Bus2=94426104.1.2.3 LineCode=750_CLP_3PH_12KV_3 Length=0.057043 units=km
New Line.ND137679362$E5128356T1 phases=3 Bus1=137679362.1.2.3 Bus2=137679356.1.2.3 LineCode=750_CLP_3PH_12KV_3 Length=0.001947 units=km
New Line.ND137679362$ND94427645 phases=3 Bus1=137679362.1.2.3 Bus2=94427645.1.2.3 LineCode=750_CLP_3PH_12KV_3 Length=0.161702 units=km
New Line.ND94427645$ND196014683 phases=3 Bus1=94427645.1.2.3 Bus2=196014683.1.2.3 LineCode=750_CLP_3PH_12KV_3 Length=0.018631 units=km
New Line.ND94427645$RCS0843-4 phases=3 Bus1=94427645.1.2.3 Bus2=36418326.1.2.3 LineCode=750_CLP_3PH_12KV_3 Length=0.027569 units=km
New Line.ND196014683$V5179151PT phases=3 Bus1=196014683.1.2.3 Bus2=196014677.1.2.3 LineCode=750_CLP_3PH_12KV_3 Length=0.002509 units=km
New Line.ND196014683$2218547E phases=3 Bus1=196014683.1.2.3 Bus2=94427624.1.2.3 LineCode=750_CLP_3PH_12KV_3 Length=0.086437 units=km
New Line.2218547E$1630161E phases=3 Bus1=94427623.1.2.3 Bus2=94427614.1.2.3 LineCode=4_ACSR_3PH_12KV_3 Length=0.042776 units=km
New Line.RCS0843-5$V5179151 phases=3 Bus1=36418334.1.2.3 Bus2=36447107.1.2.3 LineCode=1/0_CLP_3PH_12KV_3 Length=0.020664 units=km
New Line.ND60475575$RCS0843-3 phases=3 Bus1=36418318.1.2.3 Bus2=60475575.1.2.3 LineCode=750_CLP_3PH_12KV_3 Length=0.249971 units=km
New Line.V5163763PT$ND60475575 phases=3 Bus1=60475575.1.2.3 Bus2=217890482.1.2.3 LineCode=750_CLP_3PH_12KV_3 Length=0.273875 units=km
New Line.ND36478526$V5179151 phases=3 Bus1=36447107.1.2.3 Bus2=36478526.1.2.3 LineCode=1/0_CLP_3PH_12KV_3 Length=0.11579 units=km
New Line.ND60475575$BS0842-T phases=3 Bus1=60475575.1.2.3 Bus2=60448531.1.2.3 LineCode=2_CLP_3PH_12KV_3 Length=0.047139 units=km
New Line.ND175543095$V5163763PT phases=3 Bus1=217890482.1.2.3 Bus2=175543095.1.2.3 LineCode=750_CLP_3PH_12KV_3 Length=0.006527 units=km
New Line.1994222E$RCS0843-1 phases=3 Bus1=36418302.1.2.3 Bus2=36420255.1.2.3 LineCode=750_CLP_3PH_12KV_3 Length=0.094877 units=km
New Line.ND36478526$P5375452-1 phases=3 Bus1=36478526.1.2.3 Bus2=36444913.1.2.3 LineCode=1/0_CLP_3PH_12KV_3 Length=0.028642 units=km
New Line.ND217890500$ND175543095 phases=3 Bus1=175543095.1.2.3 Bus2=217890500.1.2.3 LineCode=750_CLP_3PH_12KV_3 Length=0.00372 units=km
New Line.PS0249$PH phases=3 Bus1=36445536.1.2.3 Bus2=36446653.1.2.3 LineCode=653_ACSR_3PH_12KV_3 Length=0.10651 units=km
New Line.PS0266$PS0249 phases=4 Bus1=36446652.0.1.2.3 Bus2=36446686.0.1.2.3 LineCode=653_ACSR_3PH_653_ACSR_N_12KV_4 Length=0.442993 units=km
New Line.PS0266$ND36446995 phases=4 Bus1=36446687.0.1.2.3 Bus2=36446995.0.1.2.3 LineCode=653_ACSR_3PH_653_ACSR_N_12KV_4 Length=0.48233 units=km
New Line.ND36446995$438065E phases=4 Bus1=36446995.0.1.2.3 Bus2=36421336.0.1.2.3 LineCode=653_ACSR_3PH_653_ACSR_N_12KV_4 Length=0.048797 units=km
New Line.438065E$4321333E phases=4 Bus1=36421336.0.1.2.3 Bus2=36445593.0.1.2.3 LineCode=653_ACSR_3PH_653_ACSR_N_12KV_4 Length=0.284506 units=km
New Line.4321333E$816393E phases=4 Bus1=36445593.0.1.2.3 Bus2=138873045.0.1.2.3 LineCode=653_ACSR_3PH_653_ACSR_N_12KV_4 Length=0.047633 units=km
New Line.816393E$ND36478032 phases=4 Bus1=138873045.0.1.2.3 Bus2=36478032.0.1.2.3 LineCode=653_ACSR_3PH_653_ACSR_N_12KV_4 Length=0.140447 units=km
New Line.ND36478032$BF10571 phases=3 Bus1=36478032.1.2.3 Bus2=36446894.1.2.3 LineCode=4_ACSR_3PH_12KV_3 Length=0.043041 units=km
New Line.ND36478033$ND36478032 phases=4 Bus1=36478032.0.1.2.3 Bus2=36478033.0.1.2.3 LineCode=653_ACSR_3PH_653_ACSR_N_12KV_4 Length=0.719605 units=km
New Line.ND149237278$ND36478033 phases=4 Bus1=36478033.0.1.2.3 Bus2=149237278.0.1.2.3 LineCode=653_ACSR_3PH_653_ACSR_N_12KV_4 Length=0.062724 units=km
New Line.ND36478033$PS0136 phases=3 Bus1=36478033.1.2.3 Bus2=36446754.1.2.3 LineCode=653_ACSR_3PH_12KV_3 Length=0.045425 units=km
New Line.PS0101$359E phases=3 Bus1=243522368.1.2.3 Bus2=243522343.1.2.3 LineCode=1/0_ACSR_3PH_12KV_3 Length=0.001355 units=km
New Line.ND36477664$PS0104 phases=3 Bus1=36477664.1.2.3 Bus2=312175035.1.2.3 LineCode=1/0_ACSR_3PH_12KV_3 Length=0.040711 units=km
New Line.ND36477650$4615635E phases=2 Bus1=36477650.1.2 Bus2=36421617.1.2 LineCode=1/0_ACSR_2PH_12KV_2 Length=0.102332 units=km
New Line.ND36477650$1913887E phases=3 Bus1=36477650.1.2.3 Bus2=36443307.1.2.3 LineCode=1/0_ACSR_3PH_12KV_3 Length=0.056734 units=km
New Line.733974E$733973E phases=2 Bus1=36421413.2.3 Bus2=36444550.2.3 LineCode=1/0_ACSR_2PH_12KV_2 Length=0.039419 units=km
New Line.ND36477664$ND36446916 phases=3 Bus1=36477664.1.2.3 Bus2=36446916.1.2.3 LineCode=1/0_ACSR_3PH_12KV_3 Length=0.062374 units=km
New Line.ND242370767$1913887E phases=3 Bus1=36443307.1.2.3 Bus2=242370767.1.2.3 LineCode=1/0_ACSR_3PH_12KV_3 Length=0.065211 units=km
New Line.ND36446916$ND36477836 phases=3 Bus1=36446916.1.2.3 Bus2=36477836.1.2.3 LineCode=1/0_ACSR_3PH_12KV_3 Length=0.06608 units=km
New Line.ND36477836$PS0103 phases=3 Bus1=36477836.1.2.3 Bus2=312174959.1.2.3 LineCode=1/0_ACSR_3PH_12KV_3 Length=0.00358 units=km
New Line.ND36477836$1752493E phases=2 Bus1=36477836.1.3 Bus2=36443282.1.3 LineCode=1/0_ACSR_2PH_12KV_2 Length=0.058758 units=km
New Line.PS0104$1949967ESMD phases=3 Bus1=312175036.1.2.3 Bus2=36443631.1.2.3 LineCode=1/0_ACSR_3PH_12KV_3 Length=0.001985 units=km
New Line.ND36477613$ND242370767 phases=3 Bus1=242370767.1.2.3 Bus2=36477613.1.2.3 LineCode=1/0_ACSR_3PH_12KV_3 Length=0.065234 units=km
New Line.ND36477641$ND242370767 phases=3 Bus1=242370767.1.2.3 Bus2=36477641.1.2.3 LineCode=1/0_ACSR_3PH_12KV_3 Length=0.051408 units=km
New Line.ND36477613$4586357E phases=2 Bus1=36477613.1.2 Bus2=36421492.1.2 LineCode=1/0_ACSR_2PH_12KV_2 Length=0.033805 units=km
New Line.ND36477613$734074E phases=2 Bus1=36477613.1.2 Bus2=36421592.1.2 LineCode=1/0_ACSR_2PH_12KV_2 Length=0.050275 units=km
New Line.ND36477641$941611E phases=3 Bus1=36477641.1.2.3 Bus2=36443199.1.2.3 LineCode=1/0_ACSR_3PH_12KV_3 Length=0.054398 units=km
New Line.ND36477641$1752386E phases=3 Bus1=36477641.1.2.3 Bus2=36443623.1.2.3 LineCode=2_ACSR_3PH_12KV_3 Length=0.069137 units=km
New Line.941611E$4375045E phases=3 Bus1=36443199.1.2.3 Bus2=156855740.1.2.3 LineCode=1/0_ACSR_3PH_12KV_3 Length=0.124465 units=km
New Line.1752386E$ND242370699 phases=3 Bus1=36443623.1.2.3 Bus2=242370699.1.2.3 LineCode=1/0_ACSR_3PH_12KV_3 Length=0.048969 units=km
New Line.734074E$ND298317105 phases=2 Bus1=36421592.1.2 Bus2=298317105.1.2 LineCode=1/0_ACSR_2PH_12KV_2 Length=0.037949 units=km
New Line.PS0103$1752492E phases=3 Bus1=312174960.1.2.3 Bus2=36443644.1.2.3 LineCode=1/0_ACSR_3PH_12KV_3 Length=0.005167 units=km
New Line.4586357E$4586356E phases=2 Bus1=36421492.1.2 Bus2=84014658.1.2 LineCode=1/0_ACSR_2PH_12KV_2 Length=0.043193 units=km
New Line.4586356E$733935E phases=2 Bus1=84014658.1.2 Bus2=36421542.1.2 LineCode=1/0_ACSR_2PH_12KV_2 Length=0.088786 units=km
New Line.ND242370699$386E phases=3 Bus1=242370699.1.2.3 Bus2=36444558.1.2.3 LineCode=2_ACSR_3PH_12KV_3 Length=0.002579 units=km
New Line.PD0179$668E phases=3 Bus1=36446580.1.2.3 Bus2=36477545.1.2.3 LineCode=4_ACSR_3PH_12KV_3 Length=0.002301 units=km
New Line.ND149237280$ND149237278 phases=4 Bus1=149237278.0.1.2.3 Bus2=149237280.0.1.2.3 LineCode=653_ACSR_3PH_653_ACSR_N_12KV_4 Length=0.062724 units=km
New Line.BF10571$W8432Y phases=3 Bus1=36446895.1.2.3 Bus2=36418242.1.2.3 LineCode=4_ACSR_3PH_12KV_3 Length=0.026347 units=km
New Line.362E$ND149237280 phases=4 Bus1=149237280.0.1.2.3 Bus2=149236926.0.1.2.3 LineCode=653_ACSR_3PH_653_ACSR_N_12KV_4 Length=0.049572 units=km
New Line.W8432Y$908E phases=3 Bus1=36418242.1.2.3 Bus2=216748896.1.2.3 LineCode=4_ACSR_3PH_12KV_3 Length=0.119241 units=km
New Line.PS0303$ND149237280 phases=4 Bus1=149237280.0.1.2.3 Bus2=36446721.0.1.2.3 LineCode=653_ACSR_3PH_653_ACSR_N_12KV_4 Length=0.164038 units=km
New Line.ND214898051$ND94428431 phases=4 Bus1=214898051.0.1.2.3 Bus2=94428431.0.1.2.3 LineCode=653_ACSR_3PH_653_ACSR_N_12KV_4 Length=0.224586 units=km
New Line.ND94428431$4530459E phases=4 Bus1=94428431.0.1.2.3 Bus2=94425096.0.1.2.3 LineCode=653_ACSR_3PH_653_ACSR_N_12KV_4 Length=0.377791 units=km
New Line.RCS0689-3$ND217890500 phases=3 Bus1=217890500.1.2.3 Bus2=60448406.1.2.3 LineCode=750_CLP_3PH_12KV_3 Length=0.004642 units=km
New Line.J0763-1P$ND217890500 phases=3 Bus1=217890500.1.2.3 Bus2=60449158.1.2.3 LineCode=1/0_JCN_3PH_12KV_3 Length=0.026343 units=km
New Line.BS0842-L$90458572 phases=3 Bus1=60448523.1.2.3 Bus2=90458574.1.2.3 LineCode=2_CLP_3PH_12KV_3 Length=0.257771 units=km
New Line.90458572$P5058668-1 phases=3 Bus1=90458575.1.2.3 Bus2=151514997.1.2.3 LineCode=2_CLP_3PH_12KV_3 Length=0.002875 units=km
New Line.RCS0689-2$V5163763T1 phases=3 Bus1=60448398.1.2.3 Bus2=60474693.1.2.3 LineCode=750_CLP_3PH_12KV_3 Length=0.036558 units=km
New Line.191517654$J0763-3P phases=3 Bus1=60449166.1.2.3 Bus2=191517656.1.2.3 LineCode=1/0_CLP_3PH_12KV_3 Length=0.069923 units=km
New Line.GS0670-4$V5163763T1 phases=3 Bus1=60474693.1.2.3 Bus2=60447982.1.2.3 LineCode=750_CLP_3PH_12KV_3 Length=0.116136 units=km
New Line.ND60475941$RCS0689-1 phases=3 Bus1=60448390.1.2.3 Bus2=60475941.1.2.3 LineCode=750_CLP_3PH_12KV_3 Length=0.207445 units=km
New Line.ND60475941$GS0690-4 phases=3 Bus1=60475941.1.2.3 Bus2=60472847.1.2.3 LineCode=750_CLP_3PH_12KV_3 Length=0.016294 units=km
New Line.J892-1P$J0763-4P phases=3 Bus1=60449174.1.2.3 Bus2=60473932.1.2.3 LineCode=1/0_CLP_3PH_12KV_3 Length=0.097098 units=km
New Line.ND60475941$V5163756T1 phases=3 Bus1=60475941.1.2.3 Bus2=60475065.1.2.3 LineCode=1/0_CLP_3PH_12KV_3 Length=0.002257 units=km
New Line.P5163764-1$191517654 phases=3 Bus1=191517657.1.2.3 Bus2=151515261.1.2.3 LineCode=1/0_CLP_3PH_12KV_3 Length=0.003887 units=km
New Line.GS0670-3$2218769E phases=3 Bus1=60447974.1.2.3 Bus2=60449096.1.2.3 LineCode=350_AL_3PH_12KV_3 Length=0.002075 units=km
New Line.GS0670-5$60475083 phases=3 Bus1=60447990.1.2.3 Bus2=60475085.1.2.3 LineCode=1/0_CLP_3PH_12KV_3 Length=0.03278 units=km
New Line.J259-1P$GS0670-2 phases=3 Bus1=60447966.1.2.3 Bus2=221537370.1.2.3 LineCode=1/0_CLP_3PH_12KV_3 Length=0.03278 units=km
New Line.J695A-4P$P5631698-1 phases=3 Bus1=150230283.1.2.3 Bus2=152081138.1.2.3 LineCode=2_CLP_3PH_12KV_3 Length=0.110831 units=km
New Line.GS5428-4$ND196014651 phases=3 Bus1=196014651.1.2.3 Bus2=199950555.1.2.3 LineCode=750_CLP_3PH_12KV_3 Length=0.312439 units=km
New Line.1752492E$215513880 phases=3 Bus1=36443645.1.2.3 Bus2=215513882.1.2.3 LineCode=1/0_JCN_3PH_12KV_3 Length=0.020757 units=km
New Line.36447212$P5381134-1 phases=3 Bus1=36447215.1.2.3 Bus2=102107502.1.2.3 LineCode=2_CLP_3PH_12KV_3 Length=0.002434 units=km
New Line.B5058272-1$386E phases=2 Bus1=36444559.2.3 Bus2=36420936.2.3 LineCode=2_CIC_2PH_12KV_2 Length=0.071792 units=km
New Line.36447024$P5058989-1 phases=3 Bus1=36447027.1.2.3 Bus2=36443709.1.2.3 LineCode=2_CLP_3PH_12KV_3 Length=0.000984 units=km
New Line.215513880$P5632547-1 phases=3 Bus1=215513883.1.2.3 Bus2=36443661.1.2.3 LineCode=2_CLP_3PH_12KV_3 Length=0.002395 units=km
New Line.V5163538$BS0901-R phases=3 Bus1=215062120.1.2.3 Bus2=36447126.1.2.3 LineCode=1/0_CLP_3PH_12KV_3 Length=0.00586 units=km
New Line.ND36477626$BS0901-L phases=3 Bus1=215062103.1.2.3 Bus2=36477626.1.2.3 LineCode=2_CLP_3PH_12KV_3 Length=0.004949 units=km
New Line.BS0252-R$ND36477679 phases=3 Bus1=36420753.1.2.3 Bus2=36477679.1.2.3 LineCode=1/0_CLP_3PH_12KV_3 Length=0.036635 units=km
New Line.BS0252-L$ND36478407 phases=3 Bus1=36420744.1.2.3 Bus2=36478407.1.2.3 LineCode=2_CLP_3PH_12KV_3 Length=0.082817 units=km
New Line.ND36478407$P5058262-A phases=3 Bus1=36478407.1.2.3 Bus2=153553468.1.2.3 LineCode=1/0_JCN_3PH_12KV_3 Length=0.011635 units=km
New Line.P5375484-1$V5163538 phases=3 Bus1=36447126.1.2.3 Bus2=153957316.1.2.3 LineCode=1/0_CLP_3PH_12KV_3 Length=0.065082 units=km
New Line.GS0810-2$GS0809-3 phases=3 Bus1=289625915.1.2.3 Bus2=173161310.1.2.3 LineCode=750_CLP_3PH_12KV_3 Length=0.30486 units=km
New Line.ND196014619$ND36477626 phases=3 Bus1=36477626.1.2.3 Bus2=196014619.1.2.3 LineCode=2_CLP_3PH_12KV_3 Length=0.148611 units=km
New Line.ND36477679$227028320 phases=3 Bus1=36477679.1.2.3 Bus2=227028322.1.2.3 LineCode=1/0_CLP_3PH_12KV_3 Length=0.081807 units=km
New Line.ND36478407$227320318 phases=3 Bus1=36478407.1.2.3 Bus2=227320320.1.2.3 LineCode=1/0_JCN_3PH_12KV_3 Length=0.005667 units=km
New Line.GS0809-1$V5163537 phases=1 Bus1=289625897.2 Bus2=291240568.2 LineCode=750_CLP_1PH_12KV_1 Length=0.007233 units=km
New Line.P5128357-1$ND36477679 phases=2 Bus1=36477679.2.3 Bus2=36420672.2.3 LineCode=2_CLP_2PH_12KV_2 Length=0.214091 units=km
New Line.ND36477626$P5200256-1 phases=3 Bus1=36477626.1.2.3 Bus2=36445125.1.2.3 LineCode=1/0_CLP_3PH_12KV_3 Length=0.153146 units=km
New Line.GS0690-3$P5381062-1 phases=3 Bus1=60472839.1.2.3 Bus2=60473224.1.2.3 LineCode=2_CLP_3PH_12KV_3 Length=0.108209 units=km
New Line.J892-2P$60475103 phases=3 Bus1=60473948.1.2.3 Bus2=60475105.1.2.3 LineCode=1/0_CLP_3PH_12KV_3 Length=0.038832 units=km
New Line.610E$PMC5267-1 phases=3 Bus1=36420285.1.2.3 Bus2=136414472.1.2.3 LineCode=350_CLP_3PH_12KV_3 Length=0.028804 units=km
New Line.60475083$P5154569-1 phases=3 Bus1=60475086.1.2.3 Bus2=151515208.1.2.3 LineCode=1/0_CLP_3PH_12KV_3 Length=0.003977 units=km
New Line.GS0670-1$J257A-1P phases=3 Bus1=60447958.1.2.3 Bus2=169599924.1.2.3 LineCode=1/0_JCN_3PH_12KV_3 Length=0.11221 units=km
New Line.205764189$J892-3P phases=3 Bus1=60473940.1.2.3 Bus2=205764191.1.2.3 LineCode=1/0_JCN_3PH_12KV_3 Length=0.114652 units=km
New Line.GS0690-1$J756-1P phases=3 Bus1=60472831.1.2.3 Bus2=60473080.1.2.3 LineCode=1/0_CLP_3PH_12KV_3 Length=0.071326 units=km
New Line.60475103$ND60474050 phases=3 Bus1=60475106.1.2.3 Bus2=60474028.1.2.3 LineCode=1/0_CLP_3PH_12KV_3 Length=0.004405 units=km
New Line.P5123893-1$205764189 phases=3 Bus1=205764192.1.2.3 Bus2=60473272.1.2.3 LineCode=1/0_JCN_3PH_12KV_3 Length=0.002222 units=km
New Line.J259-2P$V5127259 phases=3 Bus1=221537394.1.2.3 Bus2=221537488.1.2.3 LineCode=1/0_CLP_3PH_12KV_3 Length=0.002091 units=km
New Line.1093916E$ND36445088 phases=3 Bus1=36445109.1.2.3 Bus2=36445066.1.2.3 LineCode=2_CLP_3PH_12KV_3 Length=0.160608 units=km
New Line.GS5428-3$199950721 phases=3 Bus1=199950546.1.2.3 Bus2=199950723.1.2.3 LineCode=1/0_JCN_3PH_12KV_3 Length=0.098597 units=km
New Line.ND196014619$J632-1P phases=3 Bus1=196014619.1.2.3 Bus2=211415397.1.2.3 LineCode=2_CLP_3PH_12KV_3 Length=0.046274 units=km
New Line.B5058271-2$B5058272-2 phases=2 Bus1=36420945.2.3 Bus2=36421017.2.3 LineCode=2_CIC_2PH_12KV_2 Length=0.064394 units=km
New Line.GS0809-4$BF23960 phases=2 Bus1=289625924.1.3 Bus2=36445170.1.3 LineCode=2_AL_2PH_12KV_2 Length=0.050856 units=km
New Line.GS5428-2$V5178582 phases=3 Bus1=199950537.1.2.3 Bus2=199950487.1.2.3 LineCode=1/0_JCN_3PH_12KV_3 Length=0.004465 units=km
New Line.227028320$P5127614-1 phases=3 Bus1=227028323.1.2.3 Bus2=36443757.1.2.3 LineCode=1/0_CLP_3PH_12KV_3 Length=0.003567 units=km
New Line.227320318$P5058224-1 phases=3 Bus1=227320321.1.2.3 Bus2=36443805.1.2.3 LineCode=1/0_JCN_3PH_12KV_3 Length=0.003208 units=km
New Line.199950721$P5706735-1 phases=3 Bus1=199950724.1.2.3 Bus2=199950686.1.2.3 LineCode=1/0_JCN_3PH_12KV_3 Length=0.002228 units=km
New Line.BF23960$1075840E phases=2 Bus1=36445169.1.3 Bus2=36419958.1.3 LineCode=1/0_ACSR_2PH_12KV_2 Length=0.032749 units=km
New Line.RCS2029-1$GS5428-1 phases=3 Bus1=199950528.1.2.3 Bus2=36443448.1.2.3 LineCode=750_CLP_3PH_12KV_3 Length=0.274763 units=km
New Line.ND36478099$P5058262-B phases=3 Bus1=153553486.1.2.3 Bus2=36478099.1.2.3 LineCode=2_CLP_3PH_12KV_3 Length=0.009057 units=km
New Line.219656063$ND36478099 phases=3 Bus1=36478099.1.2.3 Bus2=219656065.1.2.3 LineCode=2_CLP_3PH_12KV_3 Length=0.169551 units=km
New Line.ND36478099$BS1609-T phases=3 Bus1=36478099.1.2.3 Bus2=235028125.1.2.3 LineCode=2_CLP_3PH_12KV_3 Length=0.071964 units=km
New Line.1075840E$1075842E phases=2 Bus1=36419958.1.3 Bus2=36419908.1.3 LineCode=1/0_ACSR_2PH_12KV_2 Length=0.050109 units=km
New Line.4775775EPH$RCS0691-4 phases=3 Bus1=217075166.1.2.3 Bus2=169577413.1.2.3 LineCode=750_JCN_3PH_12KV_3 Length=0.361101 units=km
New Line.ND229587404$143EPH phases=3 Bus1=229587404.1.2.3 Bus2=229587415.1.2.3 LineCode=1/0_ACSR_3PH_12KV_3 Length=0.0041 units=km
New Line.GS0815-4$RCS0691-2 phases=3 Bus1=217075150.1.2.3 Bus2=36421121.1.2.3 LineCode=750_CLP_3PH_12KV_3 Length=0.483402 units=km
New Line.V5127257$J257A-2P phases=3 Bus1=169599940.1.2.3 Bus2=60474895.1.2.3 LineCode=2_CLP_3PH_12KV_3 Length=0.00236 units=km
New Line.J259-3P$P5163530-1 phases=3 Bus1=221537378.1.2.3 Bus2=69664191.1.2.3 LineCode=2_CLP_3PH_12KV_3 Length=0.066302 units=km
New Line.J758-1P$GS0691-1 phases=3 Bus1=217075142.1.2.3 Bus2=215513744.1.2.3 LineCode=2_CLP_3PH_12KV_3 Length=0.075602 units=km
New Line.J257A-3P$227204145 phases=3 Bus1=169599932.1.2.3 Bus2=227204147.1.2.3 LineCode=2_CLP_3PH_12KV_3 Length=0.06443 units=km
New Line.1630460E$202136359 phases=3 Bus1=36446348.1.2.3 Bus2=202136361.1.2.3 LineCode=2_AL_3PH_12KV_3 Length=0.021066 units=km
New Line.J632-2P$212007203 phases=3 Bus1=211415421.1.2.3 Bus2=212007205.1.2.3 LineCode=2_CLP_3PH_12KV_3 Length=0.074027 units=km
New Line.1075842E$4390465E phases=2 Bus1=36419908.1.3 Bus2=36419933.1.3 LineCode=1/0_ACSR_2PH_12KV_2 Length=0.078777 units=km
New Line.219656063$P5633249-A phases=3 Bus1=219656066.1.2.3 Bus2=219655969.1.2.3 LineCode=2_CLP_3PH_12KV_3 Length=0.002621 units=km
New Line.4390465E$ND36477733 phases=2 Bus1=36419933.1.3 Bus2=36477733.1.3 LineCode=1/0_ACSR_2PH_12KV_2 Length=0.078518 units=km
New Line.P5200581-1$212007203 phases=3 Bus1=212007206.1.2.3 Bus2=100947671.1.2.3 LineCode=2_CLP_3PH_12KV_3 Length=0.002068 units=km
New Line.GS2029-2$ND136584469 phases=3 Bus1=36443440.1.2.3 Bus2=136584469.1.2.3 LineCode=350_CLP_3PH_12KV_3 Length=0.00849 units=km
New Line.J632-4P$220259966 phases=3 Bus1=211415413.1.2.3 Bus2=220259968.1.2.3 LineCode=2_CLP_3PH_12KV_3 Length=0.247881 units=km
New Line.ND227028418$BS1609-L phases=3 Bus1=235028117.1.2.3 Bus2=227028418.1.2.3 LineCode=1/0_CLP_3PH_12KV_3 Length=0.00836 units=km
New Line.227028475$BS1609-R phases=3 Bus1=235028108.1.2.3 Bus2=227028477.1.2.3 LineCode=2_CLP_3PH_12KV_3 Length=0.058624 units=km
New Line.ND36477733$1075847E phases=2 Bus1=36477733.1.3 Bus2=36419883.1.3 LineCode=1/0_ACSR_2PH_12KV_2 Length=0.063168 units=km
New Line.1104257E$ND36477733 phases=2 Bus1=36477733.1.3 Bus2=36419983.1.3 LineCode=1/0_ACSR_2PH_12KV_2 Length=0.035683 units=km
New Line.202136359$P5516591-1 phases=3 Bus1=202136362.1.2.3 Bus2=36446303.1.2.3 LineCode=2_AL_3PH_12KV_3 Length=0.004085 units=km
New Line.ND136584469$ND136584658 phases=3 Bus1=136584469.1.2.3 Bus2=136584658.1.2.3 LineCode=350_CLP_3PH_12KV_3 Length=0.007303 units=km
New Line.227028350$ND227028418 phases=3 Bus1=227028418.1.2.3 Bus2=227028352.1.2.3 LineCode=1/0_CLP_3PH_12KV_3 Length=0.005963 units=km
New Line.ND227028418$235028022 phases=3 Bus1=227028418.1.2.3 Bus2=235028024.1.2.3 LineCode=1/0_CLP_3PH_12KV_3 Length=0.049664 units=km
New Line.1075847E$1075848E phases=2 Bus1=36419883.1.3 Bus2=36419858.1.3 LineCode=1/0_ACSR_2PH_12KV_2 Length=0.053701 units=km
New Line.ND36446811$RCS2029-3 phases=3 Bus1=36443456.1.2.3 Bus2=36446811.1.2.3 LineCode=750_CLP_3PH_12KV_3 Length=0.059473 units=km
New Line.J265-1P$227028475 phases=3 Bus1=227028478.1.2.3 Bus2=107587973.1.2.3 LineCode=2_CLP_3PH_12KV_3 Length=0.005443 units=km
New Line.J584-2P$ND136584658 phases=3 Bus1=136584658.1.2.3 Bus2=110316761.1.2.3 LineCode=2_CLP_3PH_12KV_3 Length=0.104554 units=km
New Line.ND136584658$PME4390-1 phases=3 Bus1=136584658.1.2.3 Bus2=136584523.1.2.3 LineCode=350_CLP_3PH_12KV_3 Length=0.194602 units=km
New Line.P5633249-B$219656090 phases=3 Bus1=219655987.1.2.3 Bus2=219656093.1.2.3 LineCode=2_CLP_3PH_12KV_3 Length=0.002668 units=km
New Line.220259966$P5203706-1 phases=3 Bus1=220259969.1.2.3 Bus2=36445282.1.2.3 LineCode=2_CLP_3PH_12KV_3 Length=0.002829 units=km
New Line.J756-2P$P5128361-1 phases=3 Bus1=60473096.1.2.3 Bus2=60473033.1.2.3 LineCode=1/0_CLP_3PH_12KV_3 Length=0.077127 units=km
New Line.J259-4P$69664309 phases=3 Bus1=221537386.1.2.3 Bus2=69664311.1.2.3 LineCode=1/0_CLP_3PH_12KV_3 Length=0.046771 units=km
New Line.143EPH$229587493 phases=3 Bus1=229587416.1.2.3 Bus2=229587495.1.2.3 LineCode=1/0_CLP_3PH_12KV_3 Length=0.10115 units=km
New Line.J756-3P$P5163757-1 phases=3 Bus1=60473088.1.2.3 Bus2=60473176.1.2.3 LineCode=1/0_CLP_3PH_12KV_3 Length=0.165064 units=km
New Line.183929378$4416144E phases=3 Bus1=36445096.1.2.3 Bus2=183929380.1.2.3 LineCode=2_CLP_3PH_12KV_3 Length=0.075609 units=km
New Line.227204145$P5127258-A phases=3 Bus1=227204148.1.2.3 Bus2=232322768.1.2.3 LineCode=2_CLP_3PH_12KV_3 Length=0.002746 units=km
New Line.ND165739852$4775641EPH phases=3 Bus1=165739852.1.2.3 Bus2=36444627.1.2.3 LineCode=4_CU_3PH_12KV_3 Length=0.068027 units=km
New Line.69664309$P5165042-1 phases=3 Bus1=69664312.1.2.3 Bus2=69664232.1.2.3 LineCode=1/0_CLP_3PH_12KV_3 Length=0.001855 units=km
New Line.229587493$P574071-1 phases=3 Bus1=229587496.1.2.3 Bus2=229587449.1.2.3 LineCode=1/0_CLP_3PH_12KV_3 Length=0.002402 units=km