! OpenDSS script generated from multiconductor network
Clear

New Circuit.mc_network basekv=12.0 pu=1.000000 angle=0.00 frequency=60.0 phases=3 Mvasc3=143993 Mvasc1=47997.6
~ bus1=-8888882160060.1.2.3

! Line codes
New LineCode.1/0_JCN_3PH_12KV_3 nphases=3 units=km Rmatrix=[ 0.002088 | 0 0.002088 | 0 0 0.002088 ] Xmatrix=[ 0.000638 | 0 0.000638 | 0 0 0.000638 ] Cmatrix=[ 0 | 0 0 | 0 0 0 ]
New LineCode.2_JCN_2PH_12KV_2 nphases=2 units=km Rmatrix=[ 0.093706 | 0 0.093706 ] Xmatrix=[ 0.019751 | 0 0.019751 ] Cmatrix=[ 0 | 0 0 ]
New LineCode.1/0_ACSR_3PH_12KV_3 nphases=3 units=km Rmatrix=[ 0.008888 | 0 0.008888 | 0 0 0.008888 ] Xmatrix=[ 0.007077 | 0 0.007077 | 0 0 0.007077 ] Cmatrix=[ 0 | 0 0 | 0 0 0 ]
New LineCode.6_CU_3PH_12KV_3 nphases=3 units=km Rmatrix=[ 0.209447 | 0 0.209447 | 0 0 0.209447 ] Xmatrix=[ 0.07424 | 0 0.07424 | 0 0 0.07424 ] Cmatrix=[ 0 | 0 0 | 0 0 0 ]
New LineCode.336_ACSR_3PH_12KV_3 nphases=3 units=km Rmatrix=[ 0.175556 | 0 0.175556 | 0 0 0.175556 ] Xmatrix=[ 0.393137 | 0 0.393137 | 0 0 0.393137 ] Cmatrix=[ 0 | 0 0 | 0 0 0 ]
New LineCode.4_ACSR_3PH_12KV_3 nphases=3 units=km Rmatrix=[ 0.078931 | 0 0.078931 | 0 0 0.078931 ] Xmatrix=[ 0.028963 | 0 0.028963 | 0 0 0.028963 ] Cmatrix=[ 0 | 0 0 | 0 0 0 ]
New LineCode.2_CU_3PH_12KV_3 nphases=3 units=km Rmatrix=[ 0.041049 | 0 0.041049 | 0 0 0.041049 ] Xmatrix=[ 0.033382 | 0 0.033382 | 0 0 0.033382 ] Cmatrix=[ 0 | 0 0 | 0 0 0 ]
New LineCode.6_CU_2PH_12KV_2 nphases=2 units=km Rmatrix=[ 0.197932 | 0 0.197932 ] Xmatrix=[ 0.070159 | 0 0.070159 ] Cmatrix=[ 0 | 0 0 ]
New LineCode.1/0_ACSR_3PH_12KV_2 nphases=2 units=km Rmatrix=[ 0.008888 | 0 0.008888 ] Xmatrix=[ 0.007077 | 0 0.007077 ] Cmatrix=[ 0 | 0 0 ]
New LineCode.4_ACSR_2PH_12KV_2 nphases=2 units=km Rmatrix=[ 0.049411 | 0 0.049411 ] Xmatrix=[ 0.018131 | 0 0.018131 ] Cmatrix=[ 0 | 0 0 ]
New LineCode.4/0_ACSR_3PH_12KV_3 nphases=3 units=km Rmatrix=[ 0.00659 | 0 0.00659 | 0 0 0.00659 ] Xmatrix=[ 0.009314 | 0 0.009314 | 0 0 0.009314 ] Cmatrix=[ 0 | 0 0 | 0 0 0 ]
New LineCode.2_CLP_3PH_12KV_3 nphases=3 units=km Rmatrix=[ 0.013758 | 0 0.013758 | 0 0 0.013758 ] Xmatrix=[ 0.0029 | 0 0.0029 | 0 0 0.0029 ] Cmatrix=[ 0 | 0 0 | 0 0 0 ]
New LineCode.1/0_CLP_3PH_12KV_3 nphases=3 units=km Rmatrix=[ 0.008434 | 0 0.008434 | 0 0 0.008434 ] Xmatrix=[ 0.002578 | 0 0.002578 | 0 0 0.002578 ] Cmatrix=[ 0 | 0 0 | 0 0 0 ]
New LineCode.336_ACSR_3PH_336_ACSR_N_12KV_4 nphases=4 units=km Rmatrix=[ 0.127363 | 0 0.127363 | 0 0 0.127363 | 0 0 0 0.127363 ] Xmatrix=[ 0.25399 | 0 0.25399 | 0 0 0.25399 | 0 0 0 0.25399 ] Cmatrix=[ 0 | 0 0 | 0 0 0 | 0 0 0 0 ]
New LineCode.2_ACSR_3PH_12KV_3 nphases=3 units=km Rmatrix=[ 0.059298 | 0 0.059298 | 0 0 0.059298 ] Xmatrix=[ 0.031879 | 0 0.031879 | 0 0 0.031879 ] Cmatrix=[ 0 | 0 0 | 0 0 0 ]
New LineCode.4/0_CU_3PH_12KV_3 nphases=3 units=km Rmatrix=[ 0.001338 | 0 0.001338 | 0 0 0.001338 ] Xmatrix=[ 0.003149 | 0 0.003149 | 0 0 0.003149 ] Cmatrix=[ 0 | 0 0 | 0 0 0 ]
New LineCode.336_ACSR_2PH_12KV_2 nphases=2 units=km Rmatrix=[ 0.023604 | 0 0.023604 ] Xmatrix=[ 0.052859 | 0 0.052859 ] Cmatrix=[ 0 | 0 0 ]
New LineCode.1/0_ATW_3PH_12KV_3 nphases=3 units=km Rmatrix=[ 1e-05 | 0 1e-05 | 0 0 1e-05 ] Xmatrix=[ 1e-05 | 0 1e-05 | 0 0 1e-05 ] Cmatrix=[ 0 | 0 0 | 0 0 0 ]
New LineCode.1000_JCN_3PH_12KV_3 nphases=3 units=km Rmatrix=[ 0.031559 | 0 0.031559 | 0 0 0.031559 ] Xmatrix=[ 0.04777 | 0 0.04777 | 0 0 0.04777 ] Cmatrix=[ 0 | 0 0 | 0 0 0 ]

! Lines
New Line.PH695E$241611058 phases=3 Bus1=241610967.1.2.3 Bus2=241611060.1.2.3 LineCode=1/0_JCN_3PH_12KV_3 Length=0.108772 units=km
New Line.207327228$4387195E phases=2 Bus1=135677772.1.3 Bus2=207327230.1.3 LineCode=2_JCN_2PH_12KV_2 Length=0.083777 units=km
New Line.241611058$P5747230-1 phases=3 Bus1=241611061.1.2.3 Bus2=241611005.1.2.3 LineCode=1/0_JCN_3PH_12KV_3 Length=0.006075 units=km
New Line.207327228$P5584906-1 phases=2 Bus1=207327231.1.3 Bus2=135677822.1.3 LineCode=2_JCN_2PH_12KV_2 Length=0.003737 units=km
New Line.FD15580$241519248 phases=3 Bus1=241519174.1.2.3 Bus2=241519250.1.2.3 LineCode=1/0_JCN_3PH_12KV_3 Length=0.043029 units=km
New Line.P5779450-1$241519248 phases=3 Bus1=241519251.1.2.3 Bus2=241519199.1.2.3 LineCode=1/0_JCN_3PH_12KV_3 Length=0.003335 units=km
New Line.4257116E$199546711 phases=3 Bus1=199546629.1.2.3 Bus2=199546713.1.2.3 LineCode=1/0_JCN_3PH_12KV_3 Length=0.346119 units=km
New Line.199546711$P5707252-1 phases=3 Bus1=199546714.1.2.3 Bus2=199546667.1.2.3 LineCode=1/0_JCN_3PH_12KV_3 Length=0.005649 units=km
New Line.ND200757896$ND200757857 phases=3 Bus1=200757857.1.2.3 Bus2=200757896.1.2.3 LineCode=1/0_ACSR_3PH_12KV_3 Length=0.004946 units=km
New Line.ND31381020$ND200757896 phases=3 Bus1=200757896.1.2.3 Bus2=31381020.1.2.3 LineCode=1/0_ACSR_3PH_12KV_3 Length=0.013936 units=km
New Line.4540719E$597798E phases=3 Bus1=87383076.1.2.3 Bus2=31322997.1.2.3 LineCode=6_CU_3PH_12KV_3 Length=0.216941 units=km
New Line.1555013ET1$4369811E phases=3 Bus1=31349010.1.2.3 Bus2=31348344.1.2.3 LineCode=1/0_ACSR_3PH_12KV_3 Length=0.032178 units=km
New Line.RCS0439$1555011E phases=3 Bus1=31322075.1.2.3 Bus2=31349979.1.2.3 LineCode=336_ACSR_3PH_12KV_3 Length=0.147202 units=km
New Line.920044E$4224776E phases=3 Bus1=200573270.1.2.3 Bus2=94482701.1.2.3 LineCode=336_ACSR_3PH_12KV_3 Length=0.164062 units=km
New Line.ND200573170$4224776E phases=3 Bus1=94482701.1.2.3 Bus2=200573170.1.2.3 LineCode=336_ACSR_3PH_12KV_3 Length=0.014752 units=km
New Line.1813132E$1823210E phases=3 Bus1=31322181.1.2.3 Bus2=31322206.1.2.3 LineCode=4_ACSR_3PH_12KV_3 Length=0.091523 units=km
New Line.597798E$ND31381578 phases=3 Bus1=31322997.1.2.3 Bus2=31381578.1.2.3 LineCode=6_CU_3PH_12KV_3 Length=0.204246 units=km
New Line.ND31381578$730712E phases=3 Bus1=31381578.1.2.3 Bus2=102071913.1.2.3 LineCode=6_CU_3PH_12KV_3 Length=0.176581 units=km
New Line.4387195E$ND200573170 phases=3 Bus1=200573170.1.2.3 Bus2=135677771.1.2.3 LineCode=2_CU_3PH_12KV_3 Length=0.068516 units=km
New Line.ND200573068$ND200573170 phases=3 Bus1=200573170.1.2.3 Bus2=200573068.1.2.3 LineCode=336_ACSR_3PH_12KV_3 Length=0.003103 units=km
New Line.ND31381578$651837E phases=2 Bus1=31381578.2.3 Bus2=31323022.2.3 LineCode=6_CU_2PH_12KV_2 Length=0.107137 units=km
New Line.RCS0439$ND31382392 phases=3 Bus1=31349980.1.2.3 Bus2=31382392.1.2.3 LineCode=336_ACSR_3PH_12KV_3 Length=0.070183 units=km
New Line.BF12891$ND200573068 phases=3 Bus1=200573068.1.2.3 Bus2=200573122.1.2.3 LineCode=6_CU_3PH_12KV_3 Length=0.012925 units=km
New Line.730712E$730713E phases=3 Bus1=102071913.1.2.3 Bus2=31323047.1.2.3 LineCode=6_CU_3PH_12KV_3 Length=0.107468 units=km
New Line.1555008E$ND31382392 phases=3 Bus1=31382392.1.2.3 Bus2=31348999.1.2.3 LineCode=6_CU_3PH_12KV_3 Length=0.042142 units=km
New Line.PS0953$ND200573068 phases=3 Bus1=200573068.1.2.3 Bus2=31349146.1.2.3 LineCode=336_ACSR_3PH_12KV_3 Length=0.193459 units=km
New Line.ND31382392$ND31382097 phases=3 Bus1=31382392.1.2.3 Bus2=31382097.1.2.3 LineCode=336_ACSR_3PH_12KV_3 Length=0.035204 units=km
New Line.ND31382097$PS0641 phases=3 Bus1=31382097.1.2.3 Bus2=204183593.1.2.3 LineCode=336_ACSR_3PH_12KV_3 Length=0.113829 units=km
New Line.730713E$2042088E phases=3 Bus1=31323047.1.2.3 Bus2=31323072.1.2.3 LineCode=4_ACSR_3PH_12KV_3 Length=0.207142 units=km
New Line.ND31382097$ND31350308 phases=3 Bus1=31382097.1.2.3 Bus2=31350308.1.2.3 LineCode=4_ACSR_3PH_12KV_3 Length=0.035793 units=km
New Line.PS0678$ND31382097 phases=3 Bus1=31382097.1.2.3 Bus2=31350404.1.2.3 LineCode=336_ACSR_3PH_12KV_3 Length=0.090919 units=km
New Line.1555008E$4662765E phases=3 Bus1=31349000.1.2.3 Bus2=31322023.1.2.3 LineCode=6_CU_3PH_12KV_3 Length=0.042142 units=km
New Line.ND31350308$2269939E phases=3 Bus1=31350308.1.2.3 Bus2=31323421.1.2.3 LineCode=4_ACSR_3PH_12KV_3 Length=0.094027 units=km
New Line.ND31380847$BF12891 phases=3 Bus1=200573123.1.2.3 Bus2=31380847.1.2.3 LineCode=6_CU_3PH_12KV_3 Length=0.124416 units=km
New Line.4662765E$1209794E phases=3 Bus1=31322023.1.2.3 Bus2=31322048.1.2.3 LineCode=6_CU_3PH_12KV_3 Length=0.003465 units=km
New Line.ND31380847$1229204E phases=2 Bus1=31380847.1.2 Bus2=31323180.1.2 LineCode=1/0_ACSR_3PH_12KV_2 Length=0.05946 units=km
New Line.ND31380847$2253514E phases=2 Bus1=31380847.1.2 Bus2=31323205.1.2 LineCode=4_ACSR_2PH_12KV_2 Length=0.158821 units=km
New Line.2269939E$2253323E phases=3 Bus1=31323421.1.2.3 Bus2=31323446.1.2.3 LineCode=4_ACSR_3PH_12KV_3 Length=0.120477 units=km
New Line.PS0678$ND31381039 phases=3 Bus1=31350405.1.2.3 Bus2=31381039.1.2.3 LineCode=336_ACSR_3PH_12KV_3 Length=0.700253 units=km
New Line.ND31381039$4012535E phases=3 Bus1=31381039.1.2.3 Bus2=196044762.1.2.3 LineCode=336_ACSR_3PH_12KV_3 Length=0.173486 units=km
New Line.2253323E$2253324E phases=3 Bus1=31323446.1.2.3 Bus2=31323471.1.2.3 LineCode=4_ACSR_3PH_12KV_3 Length=0.051222 units=km
New Line.2253324E$4226413E phases=3 Bus1=31323471.1.2.3 Bus2=31323496.1.2.3 LineCode=4_ACSR_3PH_12KV_3 Length=0.226547 units=km
New Line.4012535E$ND31381391 phases=3 Bus1=196044762.1.2.3 Bus2=31381391.1.2.3 LineCode=336_ACSR_3PH_12KV_3 Length=0.15522 units=km
New Line.BF14292$4632075E phases=3 Bus1=241779208.1.2.3 Bus2=31323521.1.2.3 LineCode=1/0_ACSR_3PH_12KV_3 Length=0.051945 units=km
New Line.1554998E$1823403E phases=3 Bus1=31349492.1.2.3 Bus2=31324719.1.2.3 LineCode=1/0_ACSR_3PH_12KV_3 Length=0.02951 units=km
New Line.1554983E$ND31381391 phases=3 Bus1=31381391.1.2.3 Bus2=31349244.1.2.3 LineCode=4_ACSR_3PH_12KV_3 Length=0.019662 units=km
New Line.ND31381290$ND31381391 phases=3 Bus1=31381391.1.2.3 Bus2=31381290.1.2.3 LineCode=336_ACSR_3PH_12KV_3 Length=0.068147 units=km
New Line.ND31381290$BF12931 phases=3 Bus1=31381290.1.2.3 Bus2=214590417.1.2.3 LineCode=6_CU_3PH_12KV_3 Length=0.100716 units=km
New Line.1823403E$BF14293 phases=3 Bus1=31324719.1.2.3 Bus2=241779244.1.2.3 LineCode=1/0_ACSR_3PH_12KV_3 Length=0.075891 units=km
New Line.ND31381290$ND31380941 phases=3 Bus1=31381290.1.2.3 Bus2=31380941.1.2.3 LineCode=336_ACSR_3PH_12KV_3 Length=0.420918 units=km
New Line.ND31380941$BF51122 phases=3 Bus1=31380941.1.2.3 Bus2=190611107.1.2.3 LineCode=1/0_ACSR_3PH_12KV_3 Length=0.037566 units=km
New Line.4822895E$ND31380941 phases=3 Bus1=31380941.1.2.3 Bus2=200757902.1.2.3 LineCode=1/0_ACSR_3PH_12KV_3 Length=0.113855 units=km
New Line.1554983E$1823402E phases=3 Bus1=31349243.1.2.3 Bus2=31323546.1.2.3 LineCode=4_ACSR_3PH_12KV_3 Length=0.027876 units=km
New Line.ND31380941$1554971E phases=3 Bus1=31380941.1.2.3 Bus2=31324442.1.2.3 LineCode=336_ACSR_3PH_12KV_3 Length=0.387329 units=km
New Line.BF14293$4587534E phases=3 Bus1=241779243.1.2.3 Bus2=106157274.1.2.3 LineCode=1/0_ACSR_3PH_12KV_3 Length=0.033233 units=km
New Line.1554971E$4685866E phases=3 Bus1=31324442.1.2.3 Bus2=138505499.1.2.3 LineCode=336_ACSR_3PH_12KV_3 Length=0.409985 units=km
New Line.BF12931$ND214590460 phases=3 Bus1=214590418.1.2.3 Bus2=31323571.1.2.3 LineCode=6_CU_3PH_12KV_3 Length=0.184709 units=km
New Line.ND176578310$4822895E phases=3 Bus1=200757903.1.2.3 Bus2=176578264.1.2.3 LineCode=1/0_ACSR_3PH_12KV_3 Length=0.163617 units=km
New Line.885918E$885921E phases=3 Bus1=31323571.1.2.3 Bus2=31323596.1.2.3 LineCode=6_CU_3PH_12KV_3 Length=0.308271 units=km
New Line.4587534E$1516965E phases=3 Bus1=106157274.1.2.3 Bus2=31346214.1.2.3 LineCode=1/0_ACSR_3PH_12KV_3 Length=0.185509 units=km
New Line.1895729E$BF51122 phases=3 Bus1=190611108.1.2.3 Bus2=31348319.1.2.3 LineCode=6_CU_3PH_12KV_3 Length=0.199856 units=km
New Line.4685866E$ND31382066 phases=3 Bus1=138505499.1.2.3 Bus2=31382066.1.2.3 LineCode=336_ACSR_3PH_12KV_3 Length=0.107802 units=km
New Line.1895729E$1895727E phases=3 Bus1=31348319.1.2.3 Bus2=190611173.1.2.3 LineCode=6_CU_3PH_12KV_3 Length=0.808381 units=km
New Line.1516965E$FD15580 phases=3 Bus1=31346214.1.2.3 Bus2=241519173.1.2.3 LineCode=1/0_ACSR_3PH_12KV_3 Length=0.048866 units=km
New Line.4685867E$ND31382066 phases=3 Bus1=31382066.1.2.3 Bus2=31349391.1.2.3 LineCode=4_ACSR_3PH_12KV_3 Length=0.18709 units=km
New Line.ND31382066$ND31382067 phases=3 Bus1=31382066.1.2.3 Bus2=31382067.1.2.3 LineCode=336_ACSR_3PH_12KV_3 Length=0.151357 units=km
New Line.1895727E$4671613E phases=3 Bus1=190611173.1.2.3 Bus2=31323696.1.2.3 LineCode=6_CU_3PH_12KV_3 Length=0.355453 units=km
New Line.1554963E$ND31382067 phases=2 Bus1=31382067.1.2 Bus2=31349404.1.2 LineCode=4_ACSR_2PH_12KV_2 Length=0.039347 units=km
New Line.ND31382067$ND31381603 phases=3 Bus1=31382067.1.2.3 Bus2=31381603.1.2.3 LineCode=336_ACSR_3PH_12KV_3 Length=0.148269 units=km
New Line.4685867E$2146945E phases=3 Bus1=31349392.1.2.3 Bus2=31324469.1.2.3 LineCode=4_ACSR_3PH_12KV_3 Length=0.18709 units=km
New Line.1554961E$ND31381603 phases=3 Bus1=31381603.1.2.3 Bus2=31350031.1.2.3 LineCode=6_CU_3PH_12KV_3 Length=0.017621 units=km
New Line.ND31381603$ND31381002 phases=3 Bus1=31381603.1.2.3 Bus2=31381002.1.2.3 LineCode=336_ACSR_3PH_12KV_3 Length=0.083586 units=km
New Line.BF11455$ND31381002 phases=3 Bus1=31381002.1.2.3 Bus2=180130698.1.2.3 LineCode=6_CU_3PH_12KV_3 Length=0.037721 units=km
New Line.ND31381002$RCS0386 phases=3 Bus1=31381002.1.2.3 Bus2=205178121.1.2.3 LineCode=336_ACSR_3PH_12KV_3 Length=0.114407 units=km
New Line.1554963E$2163249E phases=2 Bus1=31349405.1.2 Bus2=31324494.1.2 LineCode=4_ACSR_2PH_12KV_2 Length=0.105712 units=km
New Line.ND176578312$ND31382286 phases=3 Bus1=176578246.1.2.3 Bus2=31382286.1.2.3 LineCode=1/0_ACSR_3PH_12KV_3 Length=0.034832 units=km
New Line.ND31382286$531837E phases=3 Bus1=31382286.1.2.3 Bus2=169474118.1.2.3 LineCode=6_CU_3PH_12KV_3 Length=0.205673 units=km
New Line.2163249E$2191333E phases=2 Bus1=31324494.1.2 Bus2=31324519.1.2 LineCode=4_ACSR_2PH_12KV_2 Length=0.032065 units=km
New Line.1554961E$582587E phases=3 Bus1=31350032.1.2.3 Bus2=31324569.1.2.3 LineCode=6_CU_3PH_12KV_3 Length=0.073937 units=km
New Line.531837ET1$ND31382286 phases=3 Bus1=31382286.1.2.3 Bus2=31349378.1.2.3 LineCode=4_ACSR_3PH_12KV_3 Length=0.092439 units=km
New Line.582601E$BF11455 phases=3 Bus1=180130699.1.2.3 Bus2=143840026.1.2.3 LineCode=6_CU_3PH_12KV_3 Length=0.04431 units=km
New Line.582587E$4416889E phases=3 Bus1=31324569.1.2.3 Bus2=31347925.1.2.3 LineCode=6_CU_3PH_12KV_3 Length=0.07372 units=km
New Line.531837E$ND31383183 phases=3 Bus1=169474118.1.2.3 Bus2=31383183.1.2.3 LineCode=1/0_ACSR_3PH_12KV_3 Length=0.289284 units=km
New Line.582601E$4671615E phases=3 Bus1=143840026.1.2.3 Bus2=138225417.1.2.3 LineCode=6_CU_3PH_12KV_3 Length=0.098668 units=km
New Line.531837ET1$4257116E phases=3 Bus1=31349379.1.2.3 Bus2=199546628.1.2.3 LineCode=4_ACSR_3PH_12KV_3 Length=0.370151 units=km
New Line.ND31383183$4701664E phases=3 Bus1=31383183.1.2.3 Bus2=31323781.1.2.3 LineCode=1/0_ACSR_3PH_12KV_3 Length=0.020754 units=km
New Line.4416889E$4416892E phases=3 Bus1=31347925.1.2.3 Bus2=31347900.1.2.3 LineCode=6_CU_3PH_12KV_3 Length=0.203034 units=km
New Line.1896185E$ND31383183 phases=3 Bus1=31383183.1.2.3 Bus2=31349362.1.2.3 LineCode=4_ACSR_3PH_12KV_3 Length=0.020754 units=km
New Line.4671615E$548041E phases=3 Bus1=138225417.1.2.3 Bus2=31324644.1.2.3 LineCode=6_CU_3PH_12KV_3 Length=0.102669 units=km
New Line.4701664E$ND31380782 phases=3 Bus1=31323781.1.2.3 Bus2=31380782.1.2.3 LineCode=1/0_ACSR_3PH_12KV_3 Length=0.215748 units=km
New Line.ND31380782$4044207E phases=3 Bus1=31380782.1.2.3 Bus2=186380946.1.2.3 LineCode=1/0_ACSR_3PH_12KV_3 Length=0.418475 units=km
New Line.548041E$548043E phases=2 Bus1=31324644.2.3 Bus2=31324669.2.3 LineCode=6_CU_2PH_12KV_2 Length=0.109869 units=km
New Line.2229716E$ND31380782 phases=3 Bus1=31380782.1.2.3 Bus2=31349307.1.2.3 LineCode=4_ACSR_3PH_12KV_3 Length=0.082569 units=km
New Line.4044207E$451354E phases=3 Bus1=186380946.1.2.3 Bus2=31323835.1.2.3 LineCode=1/0_ACSR_3PH_12KV_3 Length=0.198878 units=km
New Line.451354E$ND200757857 phases=3 Bus1=31323835.1.2.3 Bus2=200757857.1.2.3 LineCode=1/0_ACSR_3PH_12KV_3 Length=0.07918 units=km
New Line.2229716E$4589342E phases=3 Bus1=31349308.1.2.3 Bus2=31323808.1.2.3 LineCode=4_ACSR_3PH_12KV_3 Length=0.36658 units=km
New Line.1824000E$ND31381020 phases=3 Bus1=31381020.1.2.3 Bus2=31348939.1.2.3 LineCode=4/0_ACSR_3PH_12KV_3 Length=0.014621 units=km
New Line.1824000ET1$ND31381020 phases=3 Bus1=31381020.1.2.3 Bus2=31349320.1.2.3 LineCode=6_CU_3PH_12KV_3 Length=0.052773 units=km
New Line.ND31381020$ND31350294 phases=3 Bus1=31381020.1.2.3 Bus2=31350294.1.2.3 LineCode=1/0_ACSR_3PH_12KV_3 Length=0.037194 units=km
New Line.2331799E$2351559E phases=3 Bus1=31348664.1.2.3 Bus2=31323962.1.2.3 LineCode=1/0_ACSR_3PH_12KV_3 Length=0.296786 units=km
New Line.1824000ET1$ND31380661 phases=3 Bus1=31349321.1.2.3 Bus2=31380661.1.2.3 LineCode=6_CU_3PH_12KV_3 Length=0.052773 units=km
New Line.1824000E$4354111E phases=3 Bus1=31348938.1.2.3 Bus2=90431933.1.2.3 LineCode=4/0_ACSR_3PH_12KV_3 Length=0.014621 units=km
New Line.2351559E$4751738E phases=3 Bus1=31323962.1.2.3 Bus2=200740333.1.2.3 LineCode=1/0_ACSR_3PH_12KV_3 Length=0.108345 units=km
New Line.212734640$4292563E phases=3 Bus1=212734569.1.2.3 Bus2=212734642.1.2.3 LineCode=1/0_JCN_3PH_12KV_3 Length=0.127757 units=km
New Line.4673537E$207855906 phases=3 Bus1=166370215.1.2.3 Bus2=207855908.1.2.3 LineCode=1/0_JCN_3PH_12KV_3 Length=0.009805 units=km
New Line.212734640$P5700812-1 phases=3 Bus1=212734643.1.2.3 Bus2=212734605.1.2.3 LineCode=1/0_JCN_3PH_12KV_3 Length=0.015366 units=km
New Line.ND31381113$4479763EPH phases=3 Bus1=31381113.1.2.3 Bus2=31348562.1.2.3 LineCode=2_CLP_3PH_12KV_3 Length=0.012255 units=km
New Line.207855906$P5619103-1 phases=3 Bus1=207855909.1.2.3 Bus2=166370248.1.2.3 LineCode=1/0_JCN_3PH_12KV_3 Length=0.020638 units=km
New Line.4479763EPH$ND166370314 phases=3 Bus1=31348563.1.2.3 Bus2=166370314.1.2.3 LineCode=2_CLP_3PH_12KV_3 Length=0.356423 units=km
New Line.BS9935-T$ND166370314 phases=3 Bus1=166370314.1.2.3 Bus2=219475104.1.2.3 LineCode=2_CLP_3PH_12KV_3 Length=0.005151 units=km
New Line.4706222E$1229420E phases=3 Bus1=166230615.1.2.3 Bus2=224352943.1.2.3 LineCode=1/0_ACSR_3PH_12KV_3 Length=0.610308 units=km
New Line.166370324$BS9935-L phases=3 Bus1=219475096.1.2.3 Bus2=166370326.1.2.3 LineCode=1/0_JCN_3PH_12KV_3 Length=0.157529 units=km
New Line.BS9935-R$P5736674 phases=3 Bus1=219475087.1.2.3 Bus2=216929309.1.2.3 LineCode=1/0_JCN_3PH_12KV_3 Length=0.262765 units=km
New Line.P5511740-A$166370324 phases=3 Bus1=166370327.1.2.3 Bus2=218186217.1.2.3 LineCode=1/0_JCN_3PH_12KV_3 Length=0.006339 units=km
New Line.NST-13715$P5511740-B phases=3 Bus1=218186200.1.2.3 Bus2=-777777218186200.1.2.3 LineCode=1/0_JCN_3PH_12KV_3 Length=0.086648 units=km
New Line.ND31380661$ND212734592 phases=3 Bus1=31380661.1.2.3 Bus2=212734592.1.2.3 LineCode=6_CU_3PH_12KV_3 Length=0.018569 units=km
New Line.4354111E$4354110E phases=3 Bus1=90431933.1.2.3 Bus2=31348639.1.2.3 LineCode=4_ACSR_3PH_12KV_3 Length=0.167849 units=km
New Line.4354110E$ND166370194 phases=3 Bus1=31348639.1.2.3 Bus2=166370194.1.2.3 LineCode=4_ACSR_3PH_12KV_3 Length=0.066286 units=km
New Line.4292563E$ND212734592 phases=3 Bus1=212734592.1.2.3 Bus2=212734568.1.2.3 LineCode=6_CU_3PH_12KV_3 Length=0.002562 units=km
New Line.ND212734592$4363276E phases=3 Bus1=212734592.1.2.3 Bus2=31348589.1.2.3 LineCode=6_CU_3PH_12KV_3 Length=0.092078 units=km
New Line.4751738E$ND31381317 phases=3 Bus1=200740333.1.2.3 Bus2=31381317.1.2.3 LineCode=1/0_ACSR_3PH_12KV_3 Length=0.083064 units=km
New Line.ND166370194$4673537E phases=3 Bus1=166370194.1.2.3 Bus2=166370210.1.2.3 LineCode=4_ACSR_3PH_12KV_3 Length=0.004501 units=km
New Line.ND31381317$BF12770 phases=3 Bus1=31381317.1.2.3 Bus2=200740359.1.2.3 LineCode=4_ACSR_3PH_12KV_3 Length=0.690237 units=km
New Line.4363276E$PS5904 phases=3 Bus1=31348589.1.2.3 Bus2=227831054.1.2.3 LineCode=6_CU_3PH_12KV_3 Length=0.057414 units=km
New Line.ND166370194$1896396E phases=3 Bus1=166370194.1.2.3 Bus2=31323862.1.2.3 LineCode=4_ACSR_3PH_12KV_3 Length=0.041173 units=km
New Line.ND31381317$ND31381407 phases=3 Bus1=31381317.1.2.3 Bus2=31381407.1.2.3 LineCode=1/0_ACSR_3PH_12KV_3 Length=0.36835 units=km
New Line.ND31381407$BF10079 phases=3 Bus1=31381407.1.2.3 Bus2=31349330.1.2.3 LineCode=4_ACSR_3PH_12KV_3 Length=0.041311 units=km
New Line.ND31381407$ND31381480 phases=3 Bus1=31381407.1.2.3 Bus2=31381480.1.2.3 LineCode=1/0_ACSR_3PH_12KV_3 Length=0.438864 units=km
New Line.ND31381480$ND200758055 phases=3 Bus1=31381480.1.2.3 Bus2=200758055.1.2.3 LineCode=1/0_ACSR_3PH_12KV_3 Length=0.231952 units=km
New Line.BF12770$2041366E phases=3 Bus1=200740358.1.2.3 Bus2=31324340.1.2.3 LineCode=4_ACSR_3PH_12KV_3 Length=0.59243 units=km
New Line.ND31381480$BF10075 phases=3 Bus1=31381480.1.2.3 Bus2=31349346.1.2.3 LineCode=4_ACSR_3PH_12KV_3 Length=0.03051 units=km
New Line.PS5904$ND31381113 phases=3 Bus1=227831055.1.2.3 Bus2=31381113.1.2.3 LineCode=6_CU_3PH_12KV_3 Length=0.049904 units=km
New Line.ND200758055$BF12771 phases=3 Bus1=200758055.1.2.3 Bus2=200757986.1.2.3 LineCode=1/0_ACSR_3PH_12KV_3 Length=0.222273 units=km
New Line.1572206E$ND200758055 phases=3 Bus1=200758055.1.2.3 Bus2=231631477.1.2.3 LineCode=1/0_ACSR_3PH_12KV_3 Length=0.101788 units=km
New Line.BF10079$2191272E phases=3 Bus1=31349331.1.2.3 Bus2=31323987.1.2.3 LineCode=4_ACSR_3PH_12KV_3 Length=0.274739 units=km
New Line.ND31381113$ND31382012 phases=3 Bus1=31381113.1.2.3 Bus2=31382012.1.2.3 LineCode=6_CU_3PH_12KV_3 Length=0.531907 units=km
New Line.2191272E$2366273E phases=3 Bus1=31323987.1.2.3 Bus2=31321509.1.2.3 LineCode=4_ACSR_3PH_12KV_3 Length=0.008412 units=km
New Line.ND31382012$1980898E phases=3 Bus1=31382012.1.2.3 Bus2=31323937.1.2.3 LineCode=4_ACSR_3PH_12KV_3 Length=0.383057 units=km
New Line.ND31382012$ND31380650 phases=3 Bus1=31382012.1.2.3 Bus2=31380650.1.2.3 LineCode=4_ACSR_3PH_12KV_3 Length=0.429255 units=km
New Line.ND31380789$1572206E phases=3 Bus1=231631477.1.2.3 Bus2=31380789.1.2.3 LineCode=1/0_ACSR_3PH_12KV_3 Length=0.062781 units=km
New Line.BF10075$ND31382849 phases=3 Bus1=31349347.1.2.3 Bus2=31382849.1.2.3 LineCode=4_ACSR_3PH_12KV_3 Length=0.03051 units=km
New Line.ND31380650$1249939E phases=3 Bus1=31380650.1.2.3 Bus2=191594134.1.2.3 LineCode=4_ACSR_3PH_12KV_3 Length=0.090291 units=km
New Line.ND31380789$BF12772 phases=3 Bus1=31380789.1.2.3 Bus2=200757949.1.2.3 LineCode=4_ACSR_3PH_12KV_3 Length=0.216791 units=km
New Line.ND31380650$BF14419 phases=3 Bus1=31380650.1.2.3 Bus2=224353002.1.2.3 LineCode=4_ACSR_3PH_12KV_3 Length=0.326431 units=km
New Line.ND31382849$4669200E phases=3 Bus1=31382849.1.2.3 Bus2=31324012.1.2.3 LineCode=4_ACSR_3PH_12KV_3 Length=0.518596 units=km
New Line.2198099E$BF12771 phases=3 Bus1=200757985.1.2.3 Bus2=31324065.1.2.3 LineCode=4_ACSR_3PH_12KV_3 Length=0.348247 units=km
New Line.ND31380789$1572211E phases=3 Bus1=31380789.1.2.3 Bus2=31324165.1.2.3 LineCode=4_ACSR_3PH_12KV_3 Length=0.246849 units=km
New Line.4669200E$4122567E phases=3 Bus1=31324012.1.2.3 Bus2=31324037.1.2.3 LineCode=4_ACSR_3PH_12KV_3 Length=0.457661 units=km
New Line.2198099E$2198100E phases=3 Bus1=31324065.1.2.3 Bus2=31324090.1.2.3 LineCode=4_ACSR_3PH_12KV_3 Length=0.078787 units=km
New Line.1572211E$1686863E phases=3 Bus1=31324165.1.2.3 Bus2=31324190.1.2.3 LineCode=4_ACSR_3PH_12KV_3 Length=0.317412 units=km
New Line.1249939E$2281785E phases=3 Bus1=191594134.1.2.3 Bus2=31347950.1.2.3 LineCode=4_ACSR_3PH_12KV_3 Length=0.377556 units=km
New Line.BF14419$1229420E phases=3 Bus1=224353001.1.2.3 Bus2=166230615.1.2.3 LineCode=4_ACSR_3PH_12KV_3 Length=0.110346 units=km
New Line.2281785E$5019279E phases=3 Bus1=31347950.1.2.3 Bus2=286323945.1.2.3 LineCode=4_ACSR_3PH_12KV_3 Length=0.113012 units=km
New Line.BF12772$2296334E phases=3 Bus1=200757950.1.2.3 Bus2=31324115.1.2.3 LineCode=4_ACSR_3PH_12KV_3 Length=0.094034 units=km
New Line.1686863E$ND31380612 phases=3 Bus1=31324190.1.2.3 Bus2=31380612.1.2.3 LineCode=4_ACSR_3PH_12KV_3 Length=0.258084 units=km
New Line.2296334E$2296335E phases=3 Bus1=31324115.1.2.3 Bus2=31324140.1.2.3 LineCode=4_ACSR_3PH_12KV_3 Length=0.0773 units=km
New Line.ND31380612$1686872E phases=3 Bus1=31380612.1.2.3 Bus2=31324240.1.2.3 LineCode=4_ACSR_3PH_12KV_3 Length=0.403904 units=km
New Line.ND31380612$2288871E phases=3 Bus1=31380612.1.2.3 Bus2=31324315.1.2.3 LineCode=4_ACSR_3PH_12KV_3 Length=0.149105 units=km
New Line.1686872E$ND31381384 phases=3 Bus1=31324240.1.2.3 Bus2=31381384.1.2.3 LineCode=4_ACSR_3PH_12KV_3 Length=0.422874 units=km
New Line.ND31381384$2104839E phases=2 Bus1=31381384.1.3 Bus2=31324265.1.3 LineCode=4_ACSR_2PH_12KV_2 Length=0.046479 units=km
New Line.ND31381384$4553059E phases=3 Bus1=31381384.1.2.3 Bus2=31324290.1.2.3 LineCode=4_ACSR_3PH_12KV_3 Length=0.170754 units=km
New Line.1896185E$ND171503775 phases=3 Bus1=31349363.1.2.3 Bus2=-77777731349363.1.2.3 LineCode=4_ACSR_3PH_12KV_3 Length=0.085574 units=km
New Line.4699734E$P5705933-1 phases=3 Bus1=191706179.1.2.3 Bus2=191706202.1.2.3 LineCode=1/0_JCN_3PH_12KV_3 Length=0.124119 units=km
New Line.4540966E$P5705535-1 phases=3 Bus1=193354580.1.2.3 Bus2=193354623.1.2.3 LineCode=1/0_JCN_3PH_12KV_3 Length=0.12369 units=km
New Line.2085928E$206619086 phases=3 Bus1=206619033.1.2.3 Bus2=206619088.1.2.3 LineCode=1/0_JCN_3PH_12KV_3 Length=0.218363 units=km
New Line.765840E$743392E phases=3 Bus1=31348754.1.2.3 Bus2=231017234.1.2.3 LineCode=336_ACSR_3PH_12KV_3 Length=0.041758 units=km
New Line.4802348E$191754472 phases=3 Bus1=191754369.1.2.3 Bus2=191754474.1.2.3 LineCode=1/0_JCN_3PH_12KV_3 Length=0.239337 units=km
New Line.4873212E$765840E phases=3 Bus1=231017234.1.2.3 Bus2=239139896.1.2.3 LineCode=336_ACSR_3PH_12KV_3 Length=0.228689 units=km
New Line.ND185914563$4873212E phases=3 Bus1=239139896.1.2.3 Bus2=185914563.1.2.3 LineCode=336_ACSR_3PH_12KV_3 Length=0.283101 units=km
New Line.206619086$P5726965-1 phases=3 Bus1=206619089.1.2.3 Bus2=206619051.1.2.3 LineCode=1/0_JCN_3PH_12KV_3 Length=0.002955 units=km
New Line.4873214E$ND185914563 phases=3 Bus1=185914563.1.2.3 Bus2=185914519.1.2.3 LineCode=336_ACSR_3PH_12KV_3 Length=0.008429 units=km
New Line.191754472$P5705932-1 phases=3 Bus1=191754475.1.2.3 Bus2=191754423.1.2.3 LineCode=1/0_JCN_3PH_12KV_3 Length=0.006516 units=km
New Line.ND185914563$4873215E phases=3 Bus1=185914563.1.2.3 Bus2=239588530.1.2.3 LineCode=336_ACSR_3PH_12KV_3 Length=0.158938 units=km
New Line.PH302E$229829699 phases=3 Bus1=229829583.1.2.3 Bus2=229829701.1.2.3 LineCode=1/0_JCN_3PH_12KV_3 Length=0.198165 units=km
New Line.4873215E$ND233049580 phases=3 Bus1=239588530.1.2.3 Bus2=233049580.1.2.3 LineCode=336_ACSR_3PH_12KV_3 Length=0.003021 units=km
New Line.ND233049580$4873215E phases=3 Bus1=233049580.1.2.3 Bus2=185914539.1.2.3 LineCode=336_ACSR_3PH_12KV_3 Length=0.003552 units=km
New Line.4873214E$206381160 phases=3 Bus1=185914520.1.2.3 Bus2=206381162.1.2.3 LineCode=1/0_JCN_3PH_12KV_3 Length=0.071649 units=km
New Line.4957321E$ND233049580 phases=3 Bus1=233049580.1.2.3 Bus2=233049531.1.2.3 LineCode=336_ACSR_3PH_12KV_3 Length=0.339352 units=km
New Line.229829699$P5741345-1 phases=3 Bus1=229829702.1.2.3 Bus2=238107891.1.2.3 LineCode=1/0_JCN_3PH_12KV_3 Length=0.008793 units=km
New Line.206381160$ND186793574 phases=3 Bus1=206381163.1.2.3 Bus2=186793574.1.2.3 LineCode=1/0_JCN_3PH_12KV_3 Length=0.001433 units=km
New Line.206381225$4873215E phases=3 Bus1=185914540.1.2.3 Bus2=206381227.1.2.3 LineCode=1/0_JCN_3PH_12KV_3 Length=0.294048 units=km
New Line.796562E$206619200 phases=3 Bus1=206619147.1.2.3 Bus2=206619202.1.2.3 LineCode=1/0_JCN_3PH_12KV_3 Length=0.101587 units=km
New Line.ND186793574$P5655843-1 phases=3 Bus1=186793574.1.2.3 Bus2=186793517.1.2.3 LineCode=1/0_JCN_3PH_12KV_3 Length=0.002932 units=km
New Line.206381172$ND186793574 phases=3 Bus1=186793574.1.2.3 Bus2=206381175.1.2.3 LineCode=1/0_JCN_3PH_12KV_3 Length=0.001759 units=km
New Line.206381225$ND186793492 phases=3 Bus1=206381228.1.2.3 Bus2=186793492.1.2.3 LineCode=1/0_JCN_3PH_12KV_3 Length=0.00276 units=km
New Line.206619200$P5726964-1 phases=3 Bus1=206619203.1.2.3 Bus2=206619165.1.2.3 LineCode=1/0_JCN_3PH_12KV_3 Length=0.013933 units=km
New Line.ND186793492$P5655844-1 phases=3 Bus1=186793492.1.2.3 Bus2=186793439.1.2.3 LineCode=1/0_JCN_3PH_12KV_3 Length=0.0024 units=km
New Line.206381213$ND186793492 phases=3 Bus1=186793492.1.2.3 Bus2=206381216.1.2.3 LineCode=1/0_JCN_3PH_12KV_3 Length=0.002008 units=km
New Line.4933755E$ND31322414 phases=3 Bus1=31322414.1.2.3 Bus2=221473401.1.2.3 LineCode=1/0_ACSR_3PH_12KV_3 Length=0.077102 units=km
New Line.4771041E$P5704043-1 phases=3 Bus1=200457832.1.2.3 Bus2=200457883.1.2.3 LineCode=1/0_JCN_3PH_12KV_3 Length=0.283333 units=km
New Line.ND95581192$1555031E phases=3 Bus1=95581192.1.2.3 Bus2=95581170.1.2.3 LineCode=336_ACSR_3PH_12KV_3 Length=0.089572 units=km
New Line.1555031E$182933509 phases=3 Bus1=95581171.1.2.3 Bus2=182933511.1.2.3 LineCode=1/0_CLP_3PH_12KV_3 Length=0.333463 units=km
New Line.182933509$ND95581205 phases=3 Bus1=182933512.1.2.3 Bus2=95581212.1.2.3 LineCode=1/0_CLP_3PH_12KV_3 Length=0.012006 units=km
New Line.4870485E$P5628926-1 phases=3 Bus1=199897914.1.2.3 Bus2=199897973.1.2.3 LineCode=1/0_JCN_3PH_12KV_3 Length=0.192065 units=km
New Line.2330878E$4639495E phases=3 Bus1=31322797.1.2.3 Bus2=107433712.1.2.3 LineCode=4_ACSR_3PH_12KV_3 Length=0.02636 units=km
New Line.PS1163$2053181E phases=3 Bus1=155121732.1.2.3 Bus2=31348728.1.2.3 LineCode=336_ACSR_3PH_12KV_3 Length=0.066437 units=km
New Line.ND271808464$PS1163 phases=4 Bus1=31348727.0.1.2.3 Bus2=271808464.0.1.2.3 LineCode=336_ACSR_3PH_336_ACSR_N_12KV_4 Length=0.68209 units=km
New Line.ND31381061$ND271808464 phases=3 Bus1=271808464.1.2.3 Bus2=31381061.1.2.3 LineCode=336_ACSR_3PH_12KV_3 Length=1.4312 units=km
New Line.ND31381061$BF12845 phases=3 Bus1=31381061.1.2.3 Bus2=196460522.1.2.3 LineCode=1/0_ACSR_3PH_12KV_3 Length=0.205216 units=km
New Line.ND31381061$ND31381300 phases=3 Bus1=31381061.1.2.3 Bus2=31381300.1.2.3 LineCode=336_ACSR_3PH_12KV_3 Length=0.411181 units=km
New Line.ND31381300$BF10895 phases=3 Bus1=31381300.1.2.3 Bus2=31350258.1.2.3 LineCode=6_CU_3PH_12KV_3 Length=0.013668 units=km
New Line.ND31381300$ND31381631 phases=3 Bus1=31381300.1.2.3 Bus2=31381631.1.2.3 LineCode=336_ACSR_3PH_12KV_3 Length=0.411113 units=km
New Line.BF12845$4903600E phases=3 Bus1=196460523.1.2.3 Bus2=196460593.1.2.3 LineCode=1/0_ACSR_3PH_12KV_3 Length=0.110178 units=km