! OpenDSS script generated from multiconductor network
Clear

New Circuit.mc_network basekv=12.0 pu=1.000000 angle=0.00 frequency=60.0 phases=3 Mvasc3=143993 Mvasc1=47997.6
~ bus1=-8888882164457.1.2.3

! Line codes
New LineCode.4_ACSR_3PH_12KV_3 nphases=3 units=km Rmatrix=[ 0.014813 | 0 0.014813 | 0 0 0.014813 ] Xmatrix=[ 0.005436 | 0 0.005436 | 0 0 0.005436 ] Cmatrix=[ 0 | 0 0 | 0 0 0 ]
New LineCode.2_CLP_3PH_12KV_3 nphases=3 units=km Rmatrix=[ 0.185899 | 0 0.185899 | 0 0 0.185899 ] Xmatrix=[ 0.039184 | 0 0.039184 | 0 0 0.039184 ] Cmatrix=[ 0 | 0 0 | 0 0 0 ]
New LineCode.2_CLP_1PH_12KV_1 nphases=1 units=km Rmatrix=[ 0.135047 ] Xmatrix=[ 0.028465 ] Cmatrix=[ 0 ]
New LineCode.1/0_JCN_1PH_12KV_1 nphases=1 units=km Rmatrix=[ 0.039612 ] Xmatrix=[ 0.012107 ] Cmatrix=[ 0 ]
New LineCode.1/0_JCN_2PH_12KV_2 nphases=2 units=km Rmatrix=[ 0.132028 | 0 0.132028 ] Xmatrix=[ 0.040354 | 0 0.040354 ] Cmatrix=[ 0 | 0 0 ]
New LineCode.350_CLP_1PH_12KV_1 nphases=1 units=km Rmatrix=[ 0.000779 ] Xmatrix=[ 0.000592 ] Cmatrix=[ 0 ]
New LineCode.1/0_JCN_3PH_12KV_3 nphases=3 units=km Rmatrix=[ 0.008211 | 0 0.008211 | 0 0 0.008211 ] Xmatrix=[ 0.00251 | 0 0.00251 | 0 0 0.00251 ] Cmatrix=[ 0 | 0 0 | 0 0 0 ]
New LineCode.2_ACSR_3PH_2_ACSR_N_12KV_4 nphases=4 units=km Rmatrix=[ 0.007226 | 0 0.007226 | 0 0 0.007226 | 0 0 0 0.007226 ] Xmatrix=[ 0.003501 | 0 0.003501 | 0 0 0.003501 | 0 0 0 0.003501 ] Cmatrix=[ 0 | 0 0 | 0 0 0 | 0 0 0 0 ]
New LineCode.2_JCN_2PH_12KV_2 nphases=2 units=km Rmatrix=[ 0.221802 | 0 0.221802 ] Xmatrix=[ 0.046752 | 0 0.046752 ] Cmatrix=[ 0 | 0 0 ]
New LineCode.336_ACSR_3PH_12KV_3 nphases=3 units=km Rmatrix=[ 0.012149 | 0 0.012149 | 0 0 0.012149 ] Xmatrix=[ 0.027206 | 0 0.027206 | 0 0 0.027206 ] Cmatrix=[ 0 | 0 0 | 0 0 0 ]
New LineCode.350_AL_1PH_12KV_1 nphases=1 units=km Rmatrix=[ 0.028776 ] Xmatrix=[ 0.021864 ] Cmatrix=[ 0 ]
New LineCode.1/0_CLP_1PH_12KV_1 nphases=1 units=km Rmatrix=[ 0.01094 ] Xmatrix=[ 0.003344 ] Cmatrix=[ 0 ]
New LineCode.350_CLP_3PH_12KV_3 nphases=3 units=km Rmatrix=[ 0.001427 | 0 0.001427 | 0 0 0.001427 ] Xmatrix=[ 0.001084 | 0 0.001084 | 0 0 0.001084 ] Cmatrix=[ 0 | 0 0 | 0 0 0 ]
New LineCode.653_ACSR_3PH_653_ACSR_N_12KV_4 nphases=4 units=km Rmatrix=[ 0.020736 | 0 0.020736 | 0 0 0.020736 | 0 0 0 0.020736 ] Xmatrix=[ 0.070504 | 0 0.070504 | 0 0 0.070504 | 0 0 0 0.070504 ] Cmatrix=[ 0 | 0 0 | 0 0 0 | 0 0 0 0 ]
New LineCode.336_ACSR_3PH_336_ACSR_N_12KV_4 nphases=4 units=km Rmatrix=[ 0.016417 | 0 0.016417 | 0 0 0.016417 | 0 0 0 0.016417 ] Xmatrix=[ 0.03274 | 0 0.03274 | 0 0 0.03274 | 0 0 0 0.03274 ] Cmatrix=[ 0 | 0 0 | 0 0 0 | 0 0 0 0 ]
New LineCode.2_ACSR_2PH_2_ACSR_N_12KV_3_N nphases=3 units=km Rmatrix=[ 0.02155 | 0 0.02155 | 0 0 0.02155 ] Xmatrix=[ 0.010441 | 0 0.010441 | 0 0 0.010441 ] Cmatrix=[ 0 | 0 0 | 0 0 0 ]
New LineCode.336_ACSR_2PH_336_ACSR_N_12KV_3_N nphases=3 units=km Rmatrix=[ 0.000893 | 0 0.000893 | 0 0 0.000893 ] Xmatrix=[ 0.001781 | 0 0.001781 | 0 0 0.001781 ] Cmatrix=[ 0 | 0 0 | 0 0 0 ]
New LineCode.6_CU_3PH_12KV_3 nphases=3 units=km Rmatrix=[ 0.033358 | 0 0.033358 | 0 0 0.033358 ] Xmatrix=[ 0.011824 | 0 0.011824 | 0 0 0.011824 ] Cmatrix=[ 0 | 0 0 | 0 0 0 ]
New LineCode.6_CU_2PH_12KV_2 nphases=2 units=km Rmatrix=[ 0.130875 | 0 0.130875 ] Xmatrix=[ 0.046389 | 0 0.046389 ] Cmatrix=[ 0 | 0 0 ]
New LineCode.1/0_ACSR_3PH_1/0_ACSR_N_12KV_4 nphases=4 units=km Rmatrix=[ 0.002561 | 0 0.002561 | 0 0 0.002561 | 0 0 0 0.002561 ] Xmatrix=[ 0.001851 | 0 0.001851 | 0 0 0.001851 | 0 0 0 0.001851 ] Cmatrix=[ 0 | 0 0 | 0 0 0 | 0 0 0 0 ]
New LineCode.477_ACSR_3PH_477_ACSR_N_12KV_4 nphases=4 units=km Rmatrix=[ 0.00107 | 0 0.00107 | 0 0 0.00107 | 0 0 0 0.00107 ] Xmatrix=[ 0.003294 | 0 0.003294 | 0 0 0.003294 | 0 0 0 0.003294 ] Cmatrix=[ 0 | 0 0 | 0 0 0 | 0 0 0 0 ]
New LineCode.4_ACSR_2PH_4_ACSR_N_12KV_3_N nphases=3 units=km Rmatrix=[ 0.007818 | 0 0.007818 | 0 0 0.007818 ] Xmatrix=[ 0.002629 | 0 0.002629 | 0 0 0.002629 ] Cmatrix=[ 0 | 0 0 | 0 0 0 ]

! Lines
New Line.4488967E$4673178E phases=3 Bus1=29990442.1.2.3 Bus2=98644708.1.2.3 LineCode=4_ACSR_3PH_12KV_3 Length=0.027949 units=km
New Line.FD10755$ND105626406 phases=3 Bus1=90966134.1.2.3 Bus2=105626406.1.2.3 LineCode=2_CLP_3PH_12KV_3 Length=0.06743 units=km
New Line.ND108890113$ND105626406 phases=3 Bus1=105626406.1.2.3 Bus2=108890113.1.2.3 LineCode=2_CLP_3PH_12KV_3 Length=0.006653 units=km
New Line.ND105626406$222262882 phases=1 Bus1=105626406.3 Bus2=222262884.3 LineCode=2_CLP_1PH_12KV_1 Length=0.117728 units=km
New Line.P5523185-2$69593512 phases=1 Bus1=84299845.1 Bus2=69593515.1 LineCode=2_CLP_1PH_12KV_1 Length=0.002358 units=km
New Line.87379632$P5521592-2 phases=1 Bus1=87379635.1 Bus2=87379162.1 LineCode=2_CLP_1PH_12KV_1 Length=0.002643 units=km
New Line.102298863$102298838 phases=1 Bus1=102298865.2 Bus2=102298840.2 LineCode=2_CLP_1PH_12KV_1 Length=0.15081 units=km
New Line.102494782$102494832 phases=1 Bus1=102494834.3 Bus2=102494784.3 LineCode=2_CLP_1PH_12KV_1 Length=0.171999 units=km
New Line.169004142$P5644842-2 phases=1 Bus1=169004145.3 Bus2=169003974.3 LineCode=1/0_JCN_1PH_12KV_1 Length=0.002596 units=km
New Line.ND218620731$ND218620775 phases=2 Bus1=218620731.1.3 Bus2=218620775.1.3 LineCode=1/0_JCN_2PH_12KV_2 Length=0.122044 units=km
New Line.P5648256-1$262613214 phases=1 Bus1=239772828.3 Bus2=262613217.3 LineCode=1/0_JCN_1PH_12KV_1 Length=0.00096 units=km
New Line.P5648254-2$262613283 phases=1 Bus1=236199676.3 Bus2=262613286.3 LineCode=1/0_JCN_1PH_12KV_1 Length=0.001278 units=km
New Line.P5449479-2$P5449478-1 phases=1 Bus1=29968963.3 Bus2=29969116.3 LineCode=350_CLP_1PH_12KV_1 Length=0.115508 units=km
New Line.P5452862-1$P5449477-2 phases=1 Bus1=29968756.3 Bus2=29993155.3 LineCode=350_CLP_1PH_12KV_1 Length=0.194484 units=km
New Line.P5603283-1$108891482 phases=1 Bus1=108891485.2 Bus2=108890868.2 LineCode=2_CLP_1PH_12KV_1 Length=0.001456 units=km
New Line.109922147$P5603280-1 phases=1 Bus1=109922150.2 Bus2=108891112.2 LineCode=2_CLP_1PH_12KV_1 Length=0.001034 units=km
New Line.166028169$P5439822-2 phases=1 Bus1=29968540.3 Bus2=166028172.3 LineCode=2_CLP_1PH_12KV_1 Length=0.003556 units=km
New Line.182247024$PME2640-2 phases=3 Bus1=69593746.1.2.3 Bus2=182247027.1.2.3 LineCode=1/0_JCN_3PH_12KV_3 Length=0.000689 units=km
New Line.ND218620775$ND218620862 phases=1 Bus1=218620775.1 Bus2=218620862.1 LineCode=1/0_JCN_1PH_12KV_1 Length=0.004475 units=km
New Line.ND218620775$218621304 phases=1 Bus1=218620775.3 Bus2=218621306.3 LineCode=1/0_JCN_1PH_12KV_1 Length=0.119422 units=km
New Line.218622724$P5736748-1 phases=1 Bus1=218622727.2 Bus2=218622079.2 LineCode=1/0_JCN_1PH_12KV_1 Length=0.002218 units=km
New Line.219646702$P5481913-2 phases=1 Bus1=29990011.1 Bus2=219646705.1 LineCode=350_CLP_1PH_12KV_1 Length=0.001408 units=km
New Line.P5439819-1$P5439820-1 phases=1 Bus1=29970027.1 Bus2=29968603.1 LineCode=350_CLP_1PH_12KV_1 Length=0.172948 units=km
New Line.P5458759-2$165584728 phases=1 Bus1=165584731.2 Bus2=29970713.2 LineCode=350_CLP_1PH_12KV_1 Length=0.00018 units=km
New Line.69593512$69593545 phases=1 Bus1=69593514.1 Bus2=69593559.1 LineCode=2_CLP_1PH_12KV_1 Length=0.191943 units=km
New Line.102298838$P5572088-2 phases=1 Bus1=102298841.2 Bus2=102298580.2 LineCode=2_CLP_1PH_12KV_1 Length=0.001605 units=km
New Line.P5572094-2$102494782 phases=1 Bus1=102494785.3 Bus2=102494379.3 LineCode=2_CLP_1PH_12KV_1 Length=0.001825 units=km
New Line.182247000$PME2640-1 phases=1 Bus1=69593764.1 Bus2=182247003.1 LineCode=1/0_JCN_1PH_12KV_1 Length=0.002914 units=km
New Line.182247012$PME2640-3 phases=1 Bus1=69593755.1 Bus2=182247015.1 LineCode=1/0_JCN_1PH_12KV_1 Length=0.000883 units=km
New Line.ND218620862$218621279 phases=1 Bus1=218620862.1 Bus2=218621281.1 LineCode=1/0_JCN_1PH_12KV_1 Length=0.130017 units=km
New Line.ND218620862$ND218621487 phases=1 Bus1=218620862.1 Bus2=218621487.1 LineCode=1/0_JCN_1PH_12KV_1 Length=0.009291 units=km
New Line.P5653468-2$262613214 phases=1 Bus1=262613216.3 Bus2=239772769.3 LineCode=1/0_JCN_1PH_12KV_1 Length=0.092172 units=km
New Line.262613283$262613311 phases=1 Bus1=262613285.3 Bus2=262613313.3 LineCode=1/0_JCN_1PH_12KV_1 Length=0.064491 units=km
New Line.P5521592-1$ND87379474 phases=1 Bus1=87379153.1 Bus2=87379474.1 LineCode=2_CLP_1PH_12KV_1 Length=0.002605 units=km
New Line.ND182486421$182247024 phases=3 Bus1=182247026.1.2.3 Bus2=182486421.1.2.3 LineCode=1/0_JCN_3PH_12KV_3 Length=0.174585 units=km
New Line.P5736746-2$218621304 phases=1 Bus1=218621307.3 Bus2=218620993.3 LineCode=1/0_JCN_1PH_12KV_1 Length=0.001386 units=km
New Line.ND218621487$218621580 phases=1 Bus1=218621487.1 Bus2=218621582.1 LineCode=1/0_JCN_1PH_12KV_1 Length=0.060965 units=km
New Line.ND218621487$218622565 phases=1 Bus1=218621487.1 Bus2=218622567.1 LineCode=1/0_JCN_1PH_12KV_1 Length=0.169731 units=km
New Line.219578161$219646702 phases=1 Bus1=219646704.1 Bus2=219578163.1 LineCode=350_CLP_1PH_12KV_1 Length=0.194021 units=km
New Line.P5452862-2$P5452909-1 phases=1 Bus1=29993164.3 Bus2=29970256.3 LineCode=350_CLP_1PH_12KV_1 Length=0.148343 units=km
New Line.P5458760-1$166028169 phases=1 Bus1=166028171.3 Bus2=29970632.3 LineCode=2_CLP_1PH_12KV_1 Length=0.209698 units=km
New Line.P5449479-1$ND30014356 phases=1 Bus1=29969107.3 Bus2=30014356.3 LineCode=350_CLP_1PH_12KV_1 Length=0.071706 units=km
New Line.69593545$P5523187-1 phases=1 Bus1=69593548.1 Bus2=84299987.1 LineCode=2_CLP_1PH_12KV_1 Length=0.000996 units=km
New Line.ND87379474$87379657 phases=1 Bus1=87379474.1 Bus2=87379660.1 LineCode=2_CLP_1PH_12KV_1 Length=0.001366 units=km
New Line.ND87379474$87379682 phases=1 Bus1=87379474.1 Bus2=87379685.1 LineCode=2_CLP_1PH_12KV_1 Length=0.001612 units=km
New Line.108891507$P5603283-2 phases=1 Bus1=108890877.2 Bus2=108891510.2 LineCode=2_CLP_1PH_12KV_1 Length=0.000862 units=km
New Line.P5603280-2$109922172 phases=1 Bus1=108891121.2 Bus2=109922175.2 LineCode=2_CLP_1PH_12KV_1 Length=0.001351 units=km
New Line.P5458759-1$165584681 phases=1 Bus1=29970704.2 Bus2=165584684.2 LineCode=350_CLP_1PH_12KV_1 Length=0.003534 units=km
New Line.ND87378809$4456702E phases=4 Bus1=87378809.0.1.2.3 Bus2=87378787.0.1.2.3 LineCode=2_ACSR_3PH_2_ACSR_N_12KV_4 Length=0.070772 units=km
New Line.ND108890113$PME2972-4 phases=3 Bus1=108890113.1.2.3 Bus2=108890149.1.2.3 LineCode=2_CLP_3PH_12KV_3 Length=0.15233 units=km
New Line.ND99318037$ND108890113 phases=3 Bus1=108890113.1.2.3 Bus2=99318037.1.2.3 LineCode=2_CLP_3PH_12KV_3 Length=0.356428 units=km
New Line.ND99318037$102298803 phases=1 Bus1=99318037.2 Bus2=102298805.2 LineCode=2_CLP_1PH_12KV_1 Length=0.041476 units=km
New Line.4673184E$ND99318037 phases=3 Bus1=99318037.1.2.3 Bus2=105626312.1.2.3 LineCode=2_CLP_3PH_12KV_3 Length=0.05712 units=km
New Line.4456702E$PMH1589-4 phases=3 Bus1=87378788.1.2.3 Bus2=87378838.1.2.3 LineCode=2_CLP_3PH_12KV_3 Length=0.055084 units=km
New Line.222262882$PFC2727-1 phases=1 Bus1=222262885.3 Bus2=90966171.3 LineCode=2_CLP_1PH_12KV_1 Length=0.003856 units=km
New Line.ND182486421$182247000 phases=1 Bus1=182486421.1 Bus2=182247002.1 LineCode=1/0_JCN_1PH_12KV_1 Length=0.183068 units=km
New Line.ND182486421$ND200493662 phases=2 Bus1=182486421.2.3 Bus2=200493662.2.3 LineCode=1/0_JCN_2PH_12KV_2 Length=0.186731 units=km
New Line.218621279$P5736744-1 phases=1 Bus1=218621282.1 Bus2=218621064.1 LineCode=1/0_JCN_1PH_12KV_1 Length=0.00114 units=km
New Line.P5736748-2$218622761 phases=1 Bus1=218622088.2 Bus2=218622764.2 LineCode=1/0_JCN_1PH_12KV_1 Length=0.00151 units=km
New Line.262613311$P5648255-1 phases=1 Bus1=262613314.3 Bus2=239772692.3 LineCode=1/0_JCN_1PH_12KV_1 Length=0.001283 units=km
New Line.P5449480-1$ND30014356 phases=1 Bus1=30014356.3 Bus2=29969179.3 LineCode=350_CLP_1PH_12KV_1 Length=0.041491 units=km
New Line.ND30014356$ND30014727 phases=1 Bus1=30014356.3 Bus2=30014727.3 LineCode=350_CLP_1PH_12KV_1 Length=0.099306 units=km
New Line.69593936$182247012 phases=1 Bus1=182247014.1 Bus2=69593938.1 LineCode=1/0_JCN_1PH_12KV_1 Length=0.088911 units=km
New Line.P5572094-1$ND102494528 phases=1 Bus1=102494370.3 Bus2=102494528.3 LineCode=2_CLP_1PH_12KV_1 Length=0.001605 units=km
New Line.182486897$ND200493662 phases=1 Bus1=200493662.2 Bus2=182486899.2 LineCode=1/0_JCN_1PH_12KV_1 Length=0.136231 units=km
New Line.ND200493662$ND200493853 phases=2 Bus1=200493662.2.3 Bus2=200493853.2.3 LineCode=2_JCN_2PH_12KV_2 Length=0.377404 units=km
New Line.P5736754-2$218621580 phases=1 Bus1=218621583.1 Bus2=218621522.1 LineCode=1/0_JCN_1PH_12KV_1 Length=0.001374 units=km
New Line.218622565$P5736756-2 phases=1 Bus1=218622568.1 Bus2=218622008.1 LineCode=1/0_JCN_1PH_12KV_1 Length=0.001856 units=km
New Line.P5449483-1$ND30014727 phases=1 Bus1=30014727.3 Bus2=29969035.3 LineCode=350_CLP_1PH_12KV_1 Length=0.015638 units=km
New Line.219578161$P5481914-1 phases=1 Bus1=219578164.1 Bus2=29971734.1 LineCode=350_CLP_1PH_12KV_1 Length=0.00122 units=km
New Line.ND30014727$ND30014728 phases=1 Bus1=30014727.3 Bus2=30014728.3 LineCode=350_CLP_1PH_12KV_1 Length=0.131006 units=km
New Line.87379682$87379707 phases=1 Bus1=87379684.1 Bus2=87379709.1 LineCode=2_CLP_1PH_12KV_1 Length=0.078103 units=km
New Line.87379657$87379732 phases=1 Bus1=87379659.1 Bus2=87379734.1 LineCode=2_CLP_1PH_12KV_1 Length=0.118088 units=km
New Line.FD6701$P5530433-2 phases=1 Bus1=69451807.1 Bus2=84300230.1 LineCode=2_CLP_1PH_12KV_1 Length=0.168233 units=km
New Line.102298803$PFC2084-1 phases=1 Bus1=102298806.2 Bus2=102298316.2 LineCode=2_CLP_1PH_12KV_1 Length=0.002145 units=km
New Line.222262870$PFC2727-1 phases=1 Bus1=90966172.3 Bus2=222262873.3 LineCode=2_CLP_1PH_12KV_1 Length=0.000364 units=km
New Line.4673184E$ND232889509 phases=3 Bus1=105626311.1.2.3 Bus2=232889509.1.2.3 LineCode=336_ACSR_3PH_12KV_3 Length=0.065147 units=km
New Line.PME2972-2$P5620961-1 phases=1 Bus1=108890159.2 Bus2=236199928.2 LineCode=2_CLP_1PH_12KV_1 Length=0.229042 units=km
New Line.FD10713$29991145 phases=1 Bus1=29991322.2 Bus2=29991147.2 LineCode=2_CLP_1PH_12KV_1 Length=0.184268 units=km
New Line.FD10714$29991227 phases=1 Bus1=29991338.1 Bus2=29991229.1 LineCode=2_CLP_1PH_12KV_1 Length=0.127921 units=km
New Line.PME2972-3$ND108890359 phases=1 Bus1=108890168.3 Bus2=108890359.3 LineCode=2_CLP_1PH_12KV_1 Length=0.150266 units=km
New Line.PME2972-1$ND108890381 phases=1 Bus1=108890177.2 Bus2=108890381.2 LineCode=2_CLP_1PH_12KV_1 Length=0.02087 units=km
New Line.183327496$PMH1589-2 phases=1 Bus1=87378848.2 Bus2=183327499.2 LineCode=2_CLP_1PH_12KV_1 Length=0.001177 units=km
New Line.FD10383$ND30014055 phases=1 Bus1=29968480.1 Bus2=30014055.1 LineCode=350_AL_1PH_12KV_1 Length=0.067322 units=km
New Line.PFC2084-1$102298778 phases=1 Bus1=102298317.2 Bus2=102298781.2 LineCode=2_CLP_1PH_12KV_1 Length=0.002733 units=km
New Line.ND108890381$ND108890349 phases=1 Bus1=108890381.2 Bus2=108890349.2 LineCode=2_CLP_1PH_12KV_1 Length=0.138252 units=km
New Line.ND108890381$108891332 phases=1 Bus1=108890381.2 Bus2=108891334.2 LineCode=2_CLP_1PH_12KV_1 Length=0.052583 units=km
New Line.ND108890359$169004053 phases=1 Bus1=108890359.3 Bus2=169004055.3 LineCode=1/0_JCN_1PH_12KV_1 Length=0.10569 units=km
New Line.183327484$PMH1589-3 phases=1 Bus1=87378857.3 Bus2=183327487.3 LineCode=2_CLP_1PH_12KV_1 Length=0.003621 units=km
New Line.ND102494528$102494757 phases=1 Bus1=102494528.3 Bus2=102494759.3 LineCode=2_CLP_1PH_12KV_1 Length=0.100974 units=km
New Line.ND102494528$102494807 phases=1 Bus1=102494528.3 Bus2=102494810.3 LineCode=2_CLP_1PH_12KV_1 Length=0.00225 units=km
New Line.108891532$108891507 phases=1 Bus1=108891509.2 Bus2=108891534.2 LineCode=2_CLP_1PH_12KV_1 Length=0.096321 units=km
New Line.109922172$109922197 phases=1 Bus1=109922174.2 Bus2=109922199.2 LineCode=2_CLP_1PH_12KV_1 Length=0.172339 units=km
New Line.ND200493853$200494170 phases=1 Bus1=200493853.3 Bus2=200494172.3 LineCode=1/0_JCN_1PH_12KV_1 Length=0.090961 units=km
New Line.ND200493853$ND203471999 phases=1 Bus1=200493853.2 Bus2=203471999.2 LineCode=1/0_JCN_1PH_12KV_1 Length=0.007182 units=km
New Line.165584681$207915981 phases=1 Bus1=165584683.2 Bus2=207915983.2 LineCode=350_CLP_1PH_12KV_1 Length=0.175714 units=km
New Line.P5736746-1$218621329 phases=1 Bus1=218620984.3 Bus2=218621332.3 LineCode=1/0_JCN_1PH_12KV_1 Length=0.000584 units=km
New Line.218622761$218622699 phases=1 Bus1=218622763.2 Bus2=218622701.2 LineCode=1/0_JCN_1PH_12KV_1 Length=0.048078 units=km
New Line.P5449482-1$ND30014728 phases=1 Bus1=30014728.3 Bus2=29968891.3 LineCode=350_CLP_1PH_12KV_1 Length=0.008835 units=km
New Line.P5462016-1$P5458760-2 phases=1 Bus1=29970641.3 Bus2=29989689.3 LineCode=2_CLP_1PH_12KV_1 Length=0.241165 units=km
New Line.P5452938-1$ND30014728 phases=1 Bus1=30014728.3 Bus2=29990715.3 LineCode=350_CLP_1PH_12KV_1 Length=0.219051 units=km
New Line.P5452927-1$P5452909-2 phases=1 Bus1=29970265.3 Bus2=29993083.3 LineCode=350_CLP_1PH_12KV_1 Length=0.131655 units=km
New Line.69593936$P5547313-2 phases=1 Bus1=69593939.1 Bus2=84300069.1 LineCode=1/0_JCN_1PH_12KV_1 Length=0.002224 units=km
New Line.183327506$PMH1589-1 phases=1 Bus1=87378866.1 Bus2=183327509.1 LineCode=2_CLP_1PH_12KV_1 Length=0.001118 units=km
New Line.B5429608-2$ND30014055 phases=1 Bus1=30014055.1 Bus2=29961247.1 LineCode=350_AL_1PH_12KV_1 Length=0.10747 units=km
New Line.ND30014055$29961314 phases=1 Bus1=30014055.1 Bus2=29961316.1 LineCode=350_AL_1PH_12KV_1 Length=0.158163 units=km
New Line.P5511170-1$29991145 phases=1 Bus1=29991148.2 Bus2=29991161.2 LineCode=2_CLP_1PH_12KV_1 Length=0.003399 units=km
New Line.P5511169-1$29991227 phases=1 Bus1=29991230.1 Bus2=29991253.1 LineCode=2_CLP_1PH_12KV_1 Length=0.0033 units=km
New Line.ND90966385$222262870 phases=1 Bus1=222262872.3 Bus2=90966385.3 LineCode=2_CLP_1PH_12KV_1 Length=0.025135 units=km
New Line.ND108890349$108891357 phases=1 Bus1=108890349.2 Bus2=108891359.2 LineCode=2_CLP_1PH_12KV_1 Length=0.12001 units=km
New Line.ND108890349$108891382 phases=1 Bus1=108890349.2 Bus2=108891384.2 LineCode=2_CLP_1PH_12KV_1 Length=0.090737 units=km
New Line.ND90966385$183416371 phases=1 Bus1=90966385.3 Bus2=183416373.3 LineCode=2_CLP_1PH_12KV_1 Length=0.095478 units=km
New Line.ND90966385$183416398 phases=1 Bus1=90966385.3 Bus2=183416400.3 LineCode=2_CLP_1PH_12KV_1 Length=0.087226 units=km
New Line.183416675$183327496 phases=1 Bus1=183327498.2 Bus2=183416677.2 LineCode=2_CLP_1PH_12KV_1 Length=0.50804 units=km
New Line.P5620961-2$P5620962-1 phases=1 Bus1=236199937.2 Bus2=236199996.2 LineCode=2_CLP_1PH_12KV_1 Length=0.084364 units=km
New Line.ND90966385$ND90966561 phases=1 Bus1=90966385.3 Bus2=90966561.3 LineCode=2_CLP_1PH_12KV_1 Length=0.087392 units=km
New Line.102298778$ND102298381 phases=1 Bus1=102298780.2 Bus2=102298381.2 LineCode=2_CLP_1PH_12KV_1 Length=0.002919 units=km
New Line.ND102494625$183327484 phases=1 Bus1=183327486.3 Bus2=102494625.3 LineCode=2_CLP_1PH_12KV_1 Length=0.654728 units=km
New Line.108891332$P5603273-1 phases=1 Bus1=108891335.2 Bus2=108890477.2 LineCode=2_CLP_1PH_12KV_1 Length=0.0008 units=km
New Line.169004053$P5644843-2 phases=1 Bus1=169004056.3 Bus2=169003713.3 LineCode=1/0_JCN_1PH_12KV_1 Length=0.003656 units=km
New Line.ND90966561$183416428 phases=1 Bus1=90966561.3 Bus2=183416430.3 LineCode=2_CLP_1PH_12KV_1 Length=0.084379 units=km
New Line.ND90966561$183416529 phases=1 Bus1=90966561.3 Bus2=183416531.3 LineCode=2_CLP_1PH_12KV_1 Length=0.129455 units=km
New Line.B5429610-2$29961314 phases=1 Bus1=29961317.1 Bus2=29961339.1 LineCode=350_AL_1PH_12KV_1 Length=0.004669 units=km
New Line.87379557$183327506 phases=1 Bus1=183327508.1 Bus2=87379559.1 LineCode=2_CLP_1PH_12KV_1 Length=0.042226 units=km
New Line.ND102298381$102298753 phases=1 Bus1=102298381.2 Bus2=102298755.2 LineCode=2_CLP_1PH_12KV_1 Length=0.044172 units=km
New Line.ND102298381$102298938 phases=1 Bus1=102298381.2 Bus2=102298940.2 LineCode=2_CLP_1PH_12KV_1 Length=0.143844 units=km
New Line.102494896$ND102494625 phases=1 Bus1=102494625.3 Bus2=102494181.3 LineCode=2_CLP_1PH_12KV_1 Length=0.030014 units=km
New Line.ND102494625$102494938 phases=1 Bus1=102494625.3 Bus2=102494940.3 LineCode=2_CLP_1PH_12KV_1 Length=0.058791 units=km
New Line.108891357$P5603276-2 phases=1 Bus1=108891360.2 Bus2=108890644.2 LineCode=2_CLP_1PH_12KV_1 Length=0.000674 units=km
New Line.P5603277-1$108891382 phases=1 Bus1=108891385.2 Bus2=108890708.2 LineCode=2_CLP_1PH_12KV_1 Length=0.001476 units=km
New Line.B5429609-2$B5429608-1 phases=1 Bus1=29961238.1 Bus2=29969964.1 LineCode=350_AL_1PH_12KV_1 Length=0.147981 units=km
New Line.P5511170-2$29991135 phases=1 Bus1=29991170.2 Bus2=29991138.2 LineCode=2_CLP_1PH_12KV_1 Length=0.001029 units=km
New Line.P5511169-2$29991237 phases=1 Bus1=29991262.1 Bus2=29991240.1 LineCode=2_CLP_1PH_12KV_1 Length=0.004344 units=km
New Line.183416398$P5559016-1 phases=1 Bus1=183416401.3 Bus2=90966232.3 LineCode=2_CLP_1PH_12KV_1 Length=0.001872 units=km
New Line.183416371$P5559015-2 phases=1 Bus1=183416374.3 Bus2=90966319.3 LineCode=2_CLP_1PH_12KV_1 Length=0.00163 units=km
New Line.183416675$P5562058-1 phases=1 Bus1=183416678.2 Bus2=91261321.2 LineCode=2_CLP_1PH_12KV_1 Length=0.001331 units=km
New Line.P5656916-2$182486897 phases=1 Bus1=182486900.2 Bus2=182486687.2 LineCode=1/0_JCN_1PH_12KV_1 Length=0.001219 units=km
New Line.ND203471999$200494145 phases=1 Bus1=203471999.2 Bus2=200494147.2 LineCode=1/0_JCN_1PH_12KV_1 Length=0.103409 units=km
New Line.203472303$ND203471999 phases=1 Bus1=203471999.2 Bus2=203472305.2 LineCode=1/0_JCN_1PH_12KV_1 Length=0.246416 units=km
New Line.P5736744-2$218621252 phases=1 Bus1=218621073.1 Bus2=218621255.1 LineCode=1/0_JCN_1PH_12KV_1 Length=0.000463 units=km
New Line.29991135$ND30042319 phases=1 Bus1=29991138.2 Bus2=30042319.2 LineCode=2_CLP_1PH_12KV_1 Length=0.068603 units=km
New Line.87379557$ND87379133 phases=1 Bus1=87379560.1 Bus2=87379133.1 LineCode=2_CLP_1PH_12KV_1 Length=0.001037 units=km
New Line.183416428$P5559019-2 phases=1 Bus1=183416431.3 Bus2=90966417.3 LineCode=2_CLP_1PH_12KV_1 Length=0.0009 units=km
New Line.183416529$P5559018-1 phases=1 Bus1=183416532.3 Bus2=90966486.3 LineCode=2_CLP_1PH_12KV_1 Length=0.000809 units=km
New Line.102298753$P5572085-2 phases=1 Bus1=102298756.2 Bus2=102298247.2 LineCode=2_CLP_1PH_12KV_1 Length=0.001463 units=km
New Line.102298938$P5572086-1 phases=1 Bus1=102298941.2 Bus2=102298406.2 LineCode=2_CLP_1PH_12KV_1 Length=0.001857 units=km
New Line.102494938$P5572091-1 phases=1 Bus1=102494941.3 Bus2=102494208.3 LineCode=2_CLP_1PH_12KV_1 Length=0.0014 units=km
New Line.P5572092-1$102494896 phases=1 Bus1=102494899.3 Bus2=102494646.3 LineCode=2_CLP_1PH_12KV_1 Length=0.001374 units=km
New Line.P5603273-2$108891307 phases=1 Bus1=108890486.2 Bus2=108891310.2 LineCode=2_CLP_1PH_12KV_1 Length=0.000761 units=km
New Line.P5644843-1$169004105 phases=1 Bus1=169003704.3 Bus2=169004108.3 LineCode=1/0_JCN_1PH_12KV_1 Length=0.003198 units=km
New Line.B5429610-1$29961304 phases=1 Bus1=29961330.1 Bus2=29961307.1 LineCode=350_AL_1PH_12KV_1 Length=0.002066 units=km
New Line.P5467618-1$2299653EPH phases=1 Bus1=29970325.1 Bus2=29970341.1 LineCode=1/0_CLP_1PH_12KV_1 Length=0.051863 units=km
New Line.29991135$29991053 phases=1 Bus1=29991137.2 Bus2=29991055.2 LineCode=2_CLP_1PH_12KV_1 Length=0.068581 units=km
New Line.29991237$29993303 phases=1 Bus1=29991239.1 Bus2=29993305.1 LineCode=2_CLP_1PH_12KV_1 Length=0.175799 units=km
New Line.ND30042319$ND30042277 phases=1 Bus1=30042319.2 Bus2=30042277.2 LineCode=2_CLP_1PH_12KV_1 Length=0.036543 units=km
New Line.ND87379133$P5521590-1 phases=1 Bus1=87379133.1 Bus2=87378974.1 LineCode=2_CLP_1PH_12KV_1 Length=0.003809 units=km
New Line.ND87379133$87379530 phases=1 Bus1=87379133.1 Bus2=87379533.1 LineCode=2_CLP_1PH_12KV_1 Length=0.00733 units=km
New Line.108891407$P5603277-2 phases=1 Bus1=108890717.2 Bus2=108891410.2 LineCode=2_CLP_1PH_12KV_1 Length=0.002008 units=km
New Line.ND30042277$30011067 phases=1 Bus1=30042277.2 Bus2=30011069.2 LineCode=2_CLP_1PH_12KV_1 Length=0.115527 units=km
New Line.ND30042277$30011149 phases=1 Bus1=30042277.2 Bus2=30011151.2 LineCode=2_CLP_1PH_12KV_1 Length=0.071973 units=km
New Line.108891307$108891280 phases=1 Bus1=108891309.2 Bus2=108891282.2 LineCode=2_CLP_1PH_12KV_1 Length=0.079603 units=km
New Line.4451311E$ND166312493 phases=3 Bus1=29992192.1.2.3 Bus2=166312493.1.2.3 LineCode=350_CLP_3PH_12KV_3 Length=0.054329 units=km
New Line.183416440$P5559019-1 phases=1 Bus1=90966408.3 Bus2=183416443.3 LineCode=2_CLP_1PH_12KV_1 Length=0.000913 units=km
New Line.ND236199768$169004105 phases=1 Bus1=169004107.3 Bus2=236199768.3 LineCode=1/0_JCN_1PH_12KV_1 Length=0.152968 units=km
New Line.29961304$29961396 phases=1 Bus1=29961306.1 Bus2=29961398.1 LineCode=350_AL_1PH_12KV_1 Length=0.124958 units=km
New Line.29991053$P5511171-2 phases=1 Bus1=29991056.2 Bus2=29991078.2 LineCode=2_CLP_1PH_12KV_1 Length=0.005749 units=km
New Line.P5520753-1$29993303 phases=1 Bus1=29993306.1 Bus2=29993329.1 LineCode=2_CLP_1PH_12KV_1 Length=0.002633 units=km
New Line.87379530$87379582 phases=1 Bus1=87379532.1 Bus2=87379584.1 LineCode=2_CLP_1PH_12KV_1 Length=0.097392 units=km
New Line.102298963$P5572086-2 phases=1 Bus1=102298415.2 Bus2=102298966.2 LineCode=2_CLP_1PH_12KV_1 Length=0.001231 units=km
New Line.P5572092-2$102494913 phases=1 Bus1=102494655.3 Bus2=102494916.3 LineCode=2_CLP_1PH_12KV_1 Length=0.001398 units=km
New Line.108891432$108891407 phases=1 Bus1=108891409.2 Bus2=108891434.2 LineCode=2_CLP_1PH_12KV_1 Length=0.120737 units=km
New Line.169004233$ND236199768 phases=1 Bus1=236199768.3 Bus2=169004235.3 LineCode=1/0_JCN_1PH_12KV_1 Length=0.08303 units=km
New Line.P5521590-2$183416556 phases=1 Bus1=87378983.1 Bus2=183416558.1 LineCode=2_CLP_1PH_12KV_1 Length=0.192909 units=km
New Line.ND166312493$209811390 phases=3 Bus1=166312493.1.2.3 Bus2=209811392.1.2.3 LineCode=2_CLP_3PH_12KV_3 Length=0.069417 units=km
New Line.ND236199768$P5648252-2 phases=1 Bus1=236199768.3 Bus2=236199790.3 LineCode=1/0_JCN_1PH_12KV_1 Length=0.031564 units=km
New Line.P5467619-1$P5467618-2 phases=1 Bus1=29970350.1 Bus2=29970413.1 LineCode=1/0_CLP_1PH_12KV_1 Length=0.20657 units=km
New Line.ND166312493$PME7437-2 phases=3 Bus1=166312493.1.2.3 Bus2=29971988.1.2.3 LineCode=350_CLP_3PH_12KV_3 Length=0.316399 units=km
New Line.30011067$P5534583-2 phases=1 Bus1=30011070.2 Bus2=30011092.2 LineCode=2_CLP_1PH_12KV_1 Length=0.007087 units=km
New Line.30011149$P5534582-1 phases=1 Bus1=30011152.2 Bus2=30011165.2 LineCode=2_CLP_1PH_12KV_1 Length=0.000591 units=km
New Line.102298726$183416440 phases=1 Bus1=183416442.3 Bus2=102298728.3 LineCode=2_CLP_1PH_12KV_1 Length=0.128367 units=km
New Line.108891280$P5603274-1 phases=1 Bus1=108891283.2 Bus2=108890557.2 LineCode=2_CLP_1PH_12KV_1 Length=0.0009 units=km
New Line.29961396$B5429611-2 phases=1 Bus1=29961399.1 Bus2=29961421.1 LineCode=350_AL_1PH_12KV_1 Length=0.004779 units=km
New Line.87379582$P5521591-2 phases=1 Bus1=87379585.1 Bus2=87379064.1 LineCode=2_CLP_1PH_12KV_1 Length=0.001478 units=km
New Line.87379732$P5521595-2 phases=1 Bus1=87379735.1 Bus2=87379243.1 LineCode=2_CLP_1PH_12KV_1 Length=0.003547 units=km
New Line.87379707$P5521593-1 phases=1 Bus1=87379710.1 Bus2=87379396.1 LineCode=2_CLP_1PH_12KV_1 Length=0.00241 units=km
New Line.102494807$102494732 phases=1 Bus1=102494809.3 Bus2=102494734.3 LineCode=2_CLP_1PH_12KV_1 Length=0.156469 units=km
New Line.102494757$P5572095-2 phases=1 Bus1=102494760.3 Bus2=102495012.3 LineCode=2_CLP_1PH_12KV_1 Length=0.001453 units=km
New Line.P5603284-1$108891532 phases=1 Bus1=108891535.2 Bus2=108890948.2 LineCode=2_CLP_1PH_12KV_1 Length=0.001009 units=km
New Line.109922197$P5603282-1 phases=1 Bus1=109922200.2 Bus2=108891198.2 LineCode=2_CLP_1PH_12KV_1 Length=0.001136 units=km
New Line.200494170$P5726256-1 phases=1 Bus1=200494173.3 Bus2=200493711.3 LineCode=1/0_JCN_1PH_12KV_1 Length=0.00099 units=km
New Line.218621329$218621436 phases=1 Bus1=218621331.3 Bus2=218621438.3 LineCode=1/0_JCN_1PH_12KV_1 Length=0.100444 units=km
New Line.218622699$P5736749-2 phases=1 Bus1=218622702.2 Bus2=218622178.2 LineCode=1/0_JCN_1PH_12KV_1 Length=0.000508 units=km
New Line.P5736756-1$218622540 phases=1 Bus1=218621999.1 Bus2=218622543.1 LineCode=1/0_JCN_1PH_12KV_1 Length=0.001544 units=km
New Line.219578149$P5481914-2 phases=1 Bus1=29971743.1 Bus2=219578152.1 LineCode=350_CLP_1PH_12KV_1 Length=0.001217 units=km
New Line.207915981$P5462020-2 phases=1 Bus1=207915984.2 Bus2=29989842.2 LineCode=350_CLP_1PH_12KV_1 Length=0.002357 units=km
New Line.P5449483-2$310684609 phases=1 Bus1=29969044.3 Bus2=310684611.3 LineCode=350_CLP_1PH_12KV_1 Length=0.150228 units=km
New Line.200494145$P5726258-2 phases=1 Bus1=200494148.2 Bus2=200493891.2 LineCode=1/0_JCN_1PH_12KV_1 Length=0.001377 units=km
New Line.203472303$P5719007-2 phases=1 Bus1=203472306.2 Bus2=203472079.2 LineCode=1/0_JCN_1PH_12KV_1 Length=0.001918 units=km
New Line.P5462016-2$207916057 phases=1 Bus1=29989698.3 Bus2=207916059.3 LineCode=2_CLP_1PH_12KV_1 Length=0.205966 units=km
New Line.218621252$218621211 phases=1 Bus1=218621254.1 Bus2=218621213.1 LineCode=1/0_JCN_1PH_12KV_1 Length=0.04491 units=km
New Line.102298898$102298963 phases=1 Bus1=102298965.2 Bus2=102298900.2 LineCode=2_CLP_1PH_12KV_1 Length=0.144122 units=km
New Line.102494913$102494871 phases=1 Bus1=102494915.3 Bus2=102494873.3 LineCode=2_CLP_1PH_12KV_1 Length=0.121778 units=km
New Line.P5603278-1$108891432 phases=1 Bus1=108891435.2 Bus2=108890788.2 LineCode=2_CLP_1PH_12KV_1 Length=0.001217 units=km
New Line.209811390$P5630573-1 phases=3 Bus1=209811393.1.2.3 Bus2=166312515.1.2.3 LineCode=2_CLP_3PH_12KV_3 Length=0.006261 units=km
New Line.169004233$P5644841-2 phases=1 Bus1=169004236.3 Bus2=169003821.3 LineCode=1/0_JCN_1PH_12KV_1 Length=0.003415 units=km
New Line.P5520753-2$29993313 phases=1 Bus1=29993338.1 Bus2=29993316.1 LineCode=2_CLP_1PH_12KV_1 Length=0.00497 units=km
New Line.4451308EP$ND69593412 phases=1 Bus1=69593092.1 Bus2=69593412.1 LineCode=2_CLP_1PH_12KV_1 Length=0.064348 units=km
New Line.183416556$P5562056-1 phases=1 Bus1=183416559.1 Bus2=91261231.1 LineCode=2_CLP_1PH_12KV_1 Length=0.001084 units=km
New Line.P5449481-1$P5449482-2 phases=1 Bus1=29968900.3 Bus2=29969251.3 LineCode=350_CLP_1PH_12KV_1 Length=0.114066 units=km