! OpenDSS script generated from multiconductor network
Clear

New Circuit.mc_network basekv=12.0 pu=1.000000 angle=0.00 frequency=60.0 phases=3 Mvasc3=143993 Mvasc1=47997.6
~ bus1=-8888882179830.1.2.3

! Line codes
New LineCode.336_ACSR_3PH_336_ACSR_N_12KV_4 nphases=4 units=km Rmatrix=[ 0.009732 | 0 0.009732 | 0 0 0.009732 | 0 0 0 0.009732 ] Xmatrix=[ 0.019408 | 0 0.019408 | 0 0 0.019408 | 0 0 0 0.019408 ] Cmatrix=[ 0 | 0 0 | 0 0 0 | 0 0 0 0 ]
New LineCode.1/0_JCN_3PH_12KV_3 nphases=3 units=km Rmatrix=[ 0.007812 | 0 0.007812 | 0 0 0.007812 ] Xmatrix=[ 0.002388 | 0 0.002388 | 0 0 0.002388 ] Cmatrix=[ 0 | 0 0 | 0 0 0 ]
New LineCode.2_CLP_3PH_12KV_3 nphases=3 units=km Rmatrix=[ 0.051851 | 0 0.051851 | 0 0 0.051851 ] Xmatrix=[ 0.010929 | 0 0.010929 | 0 0 0.010929 ] Cmatrix=[ 0 | 0 0 | 0 0 0 ]
New LineCode.336_ACSR_3PH_12KV_3 nphases=3 units=km Rmatrix=[ 0.000353 | 0 0.000353 | 0 0 0.000353 ] Xmatrix=[ 0.000791 | 0 0.000791 | 0 0 0.000791 ] Cmatrix=[ 0 | 0 0 | 0 0 0 ]
New LineCode.4_ACSR_3PH_12KV_3 nphases=3 units=km Rmatrix=[ 0.044239 | 0 0.044239 | 0 0 0.044239 ] Xmatrix=[ 0.016233 | 0 0.016233 | 0 0 0.016233 ] Cmatrix=[ 0 | 0 0 | 0 0 0 ]
New LineCode.1/0_CU_3PH_12KV_3 nphases=3 units=km Rmatrix=[ 0.035413 | 0 0.035413 | 0 0 0.035413 ] Xmatrix=[ 0.044103 | 0 0.044103 | 0 0 0.044103 ] Cmatrix=[ 0 | 0 0 | 0 0 0 ]
New LineCode.4_ACSR_2PH_12KV_2 nphases=2 units=km Rmatrix=[ 0.077414 | 0 0.077414 ] Xmatrix=[ 0.028406 | 0 0.028406 ] Cmatrix=[ 0 | 0 0 ]
New LineCode.UNK_UNK_3PH_12KV_3 nphases=3 units=km Rmatrix=[ 0.003782 | 0 0.003782 | 0 0 0.003782 ] Xmatrix=[ 0.000797 | 0 0.000797 | 0 0 0.000797 ] Cmatrix=[ 0 | 0 0 | 0 0 0 ]
New LineCode.1/0_ACSR_1PH_12KV_3 nphases=3 units=km Rmatrix=[ 0.014653 | 0 0.014653 | 0 0 0.014653 ] Xmatrix=[ 0.011666 | 0 0.011666 | 0 0 0.011666 ] Cmatrix=[ 0 | 0 0 | 0 0 0 ]
New LineCode.2_AL_2PH_12KV_2 nphases=2 units=km Rmatrix=[ 0.035997 | 0 0.035997 ] Xmatrix=[ 0.007588 | 0 0.007588 ] Cmatrix=[ 0 | 0 0 ]
New LineCode.1/0_CLP_3PH_12KV_3 nphases=3 units=km Rmatrix=[ 0.050632 | 0 0.050632 | 0 0 0.050632 ] Xmatrix=[ 0.015476 | 0 0.015476 | 0 0 0.015476 ] Cmatrix=[ 0 | 0 0 | 0 0 0 ]
New LineCode.1/0_ACSR_1PH_12KV_2 nphases=2 units=km Rmatrix=[ 0.014653 | 0 0.014653 ] Xmatrix=[ 0.011666 | 0 0.011666 ] Cmatrix=[ 0 | 0 0 ]
New LineCode.2_CLP_2PH_12KV_2 nphases=2 units=km Rmatrix=[ 0.189363 | 0 0.189363 ] Xmatrix=[ 0.039914 | 0 0.039914 ] Cmatrix=[ 0 | 0 0 ]
New LineCode.2_JCN_1PH_12KV_1 nphases=1 units=km Rmatrix=[ 0.658484 ] Xmatrix=[ 0.138796 ] Cmatrix=[ 0 ]
New LineCode.2_CLP_1PH_12KV_1 nphases=1 units=km Rmatrix=[ 0.026596 ] Xmatrix=[ 0.005606 ] Cmatrix=[ 0 ]
New LineCode.1000_CLP_3PH_12KV_3 nphases=3 units=km Rmatrix=[ 0.002603 | 0 0.002603 | 0 0 0.002603 ] Xmatrix=[ 0.00394 | 0 0.00394 | 0 0 0.00394 ] Cmatrix=[ 0 | 0 0 | 0 0 0 ]
New LineCode.1/0_JCN_2PH_12KV_2 nphases=2 units=km Rmatrix=[ 0.109129 | 0 0.109129 ] Xmatrix=[ 0.033355 | 0 0.033355 ] Cmatrix=[ 0 | 0 0 ]
New LineCode.4_ACSR_3PH_12KV_2 nphases=2 units=km Rmatrix=[ 0.044239 | 0 0.044239 ] Xmatrix=[ 0.016233 | 0 0.016233 ] Cmatrix=[ 0 | 0 0 ]
New LineCode.4/0_ACSR_3PH_4/0_ACSR_N_12KV_4 nphases=4 units=km Rmatrix=[ 0.02698 | 0 0.02698 | 0 0 0.02698 | 0 0 0 0.02698 ] Xmatrix=[ 0.034346 | 0 0.034346 | 0 0 0.034346 | 0 0 0 0.034346 ] Cmatrix=[ 0 | 0 0 | 0 0 0 | 0 0 0 0 ]
New LineCode.4/0_ACSR_3PH_12KV_3 nphases=3 units=km Rmatrix=[ 0.001852 | 0 0.001852 | 0 0 0.001852 ] Xmatrix=[ 0.002618 | 0 0.002618 | 0 0 0.002618 ] Cmatrix=[ 0 | 0 0 | 0 0 0 ]
New LineCode.2_ACSR_3PH_12KV_3 nphases=3 units=km Rmatrix=[ 0.059277 | 0 0.059277 | 0 0 0.059277 ] Xmatrix=[ 0.031868 | 0 0.031868 | 0 0 0.031868 ] Cmatrix=[ 0 | 0 0 | 0 0 0 ]
New LineCode.1/0_ACSR_2PH_12KV_2 nphases=2 units=km Rmatrix=[ 0.035317 | 0 0.035317 ] Xmatrix=[ 0.028119 | 0 0.028119 ] Cmatrix=[ 0 | 0 0 ]
New LineCode.6_CU_2PH_12KV_2 nphases=2 units=km Rmatrix=[ 0.114185 | 0 0.114185 ] Xmatrix=[ 0.040474 | 0 0.040474 ] Cmatrix=[ 0 | 0 0 ]
New LineCode.336_ACSR_1PH_336_ACSR_N_12KV_3_N nphases=3 units=km Rmatrix=[ 0.001506 | 0 0.001506 | 0 0 0.001506 ] Xmatrix=[ 0.003004 | 0 0.003004 | 0 0 0.003004 ] Cmatrix=[ 0 | 0 0 | 0 0 0 ]
New LineCode.2_ACSR_2PH_12KV_2 nphases=2 units=km Rmatrix=[ 0.036052 | 0 0.036052 ] Xmatrix=[ 0.019382 | 0 0.019382 ] Cmatrix=[ 0 | 0 0 ]
New LineCode.1/0_ACSR_3PH_12KV_3 nphases=3 units=km Rmatrix=[ 0.037821 | 0 0.037821 | 0 0 0.037821 ] Xmatrix=[ 0.030113 | 0 0.030113 | 0 0 0.030113 ] Cmatrix=[ 0 | 0 0 | 0 0 0 ]
New LineCode.336_ACSR_2PH_336_ACSR_N_12KV_3_N nphases=3 units=km Rmatrix=[ 0.000223 | 0 0.000223 | 0 0 0.000223 ] Xmatrix=[ 0.000445 | 0 0.000445 | 0 0 0.000445 ] Cmatrix=[ 0 | 0 0 | 0 0 0 ]
New LineCode.4_CU_3PH_12KV_3 nphases=3 units=km Rmatrix=[ 0.05312 | 0 0.05312 | 0 0 0.05312 ] Xmatrix=[ 0.028951 | 0 0.028951 | 0 0 0.028951 ] Cmatrix=[ 0 | 0 0 | 0 0 0 ]
New LineCode.1/0_CU_2PH_12KV_2 nphases=2 units=km Rmatrix=[ 0.000577 | 0 0.000577 ] Xmatrix=[ 0.000719 | 0 0.000719 ] Cmatrix=[ 0 | 0 0 ]
New LineCode.653_ACSR_3PH_12KV_3 nphases=3 units=km Rmatrix=[ 0.010019 | 0 0.010019 | 0 0 0.010019 ] Xmatrix=[ 0.038896 | 0 0.038896 | 0 0 0.038896 ] Cmatrix=[ 0 | 0 0 | 0 0 0 ]
New LineCode.1000_JCN_3PH_12KV_3 nphases=3 units=km Rmatrix=[ 0.011261 | 0 0.011261 | 0 0 0.011261 ] Xmatrix=[ 0.017046 | 0 0.017046 | 0 0 0.017046 ] Cmatrix=[ 0 | 0 0 | 0 0 0 ]
New LineCode.350_JCN_3PH_12KV_3 nphases=3 units=km Rmatrix=[ 0.0777 | 0 0.0777 | 0 0 0.0777 ] Xmatrix=[ 0.059036 | 0 0.059036 | 0 0 0.059036 ] Cmatrix=[ 0 | 0 0 | 0 0 0 ]
New LineCode.4/0_AL_3PH_12KV_3 nphases=3 units=km Rmatrix=[ 1e-05 | 0 1e-05 | 0 0 1e-05 ] Xmatrix=[ 1e-05 | 0 1e-05 | 0 0 1e-05 ] Cmatrix=[ 0 | 0 0 | 0 0 0 ]
New LineCode.2_JCN_C_2PH_12KV_2 nphases=2 units=km Rmatrix=[ 1e-05 | 0 1e-05 ] Xmatrix=[ 1e-05 | 0 1e-05 ] Cmatrix=[ 0 | 0 0 ]

! Lines
New Line.ND144150265$1174640E phases=4 Bus1=144150265.0.1.2.3 Bus2=144150304.0.1.2.3 LineCode=336_ACSR_3PH_336_ACSR_N_12KV_4 Length=0.032824 units=km
New Line.1174640E$PS0083 phases=4 Bus1=144150304.0.1.2.3 Bus2=61050731.0.1.2.3 LineCode=336_ACSR_3PH_336_ACSR_N_12KV_4 Length=0.04546 units=km
New Line.1174641E$73848569 phases=3 Bus1=73848320.1.2.3 Bus2=73848571.1.2.3 LineCode=1/0_JCN_3PH_12KV_3 Length=0.035864 units=km
New Line.73848569$P5534155-A phases=3 Bus1=73848572.1.2.3 Bus2=244018683.1.2.3 LineCode=1/0_JCN_3PH_12KV_3 Length=0.001996 units=km
New Line.182706890$1613967E phases=3 Bus1=61022866.1.2.3 Bus2=182706892.1.2.3 LineCode=2_CLP_3PH_12KV_3 Length=0.016531 units=km
New Line.PS0416$1174650E phases=4 Bus1=60991092.0.1.2.3 Bus2=61050764.0.1.2.3 LineCode=336_ACSR_3PH_336_ACSR_N_12KV_4 Length=0.065093 units=km
New Line.PS0416$ND61063637 phases=4 Bus1=61050765.0.1.2.3 Bus2=61063637.0.1.2.3 LineCode=336_ACSR_3PH_336_ACSR_N_12KV_4 Length=0.12644 units=km
New Line.PS0414$ND61063637 phases=3 Bus1=61063637.1.2.3 Bus2=43131320.1.2.3 LineCode=336_ACSR_3PH_12KV_3 Length=0.06299 units=km
New Line.ND61063637$1174645E phases=4 Bus1=61063637.0.1.2.3 Bus2=60991220.0.1.2.3 LineCode=336_ACSR_3PH_336_ACSR_N_12KV_4 Length=0.167348 units=km
New Line.1174645E$4086491EP1 phases=4 Bus1=60991220.0.1.2.3 Bus2=61034731.0.1.2.3 LineCode=336_ACSR_3PH_336_ACSR_N_12KV_4 Length=0.055497 units=km
New Line.4086491E$1174642E phases=4 Bus1=61034731.0.1.2.3 Bus2=60991278.0.1.2.3 LineCode=336_ACSR_3PH_336_ACSR_N_12KV_4 Length=0.06309 units=km
New Line.ND144150265$1174642E phases=4 Bus1=60991278.0.1.2.3 Bus2=144150265.0.1.2.3 LineCode=336_ACSR_3PH_336_ACSR_N_12KV_4 Length=0.066012 units=km
New Line.ND144150265$1174641E phases=3 Bus1=144150265.1.2.3 Bus2=73848319.1.2.3 LineCode=336_ACSR_3PH_12KV_3 Length=0.003643 units=km
New Line.PS0083$ND61082257 phases=4 Bus1=61050730.0.1.2.3 Bus2=61082257.0.1.2.3 LineCode=336_ACSR_3PH_336_ACSR_N_12KV_4 Length=0.036554 units=km
New Line.ND61082257$1613967E phases=3 Bus1=61082257.1.2.3 Bus2=61022865.1.2.3 LineCode=336_ACSR_3PH_12KV_3 Length=0.003584 units=km
New Line.ND61082257$ND61062195 phases=4 Bus1=61082257.0.1.2.3 Bus2=61062195.0.1.2.3 LineCode=336_ACSR_3PH_336_ACSR_N_12KV_4 Length=0.047838 units=km
New Line.BF06949$ND61062195 phases=3 Bus1=61062195.1.2.3 Bus2=218948773.1.2.3 LineCode=4_ACSR_3PH_12KV_3 Length=0.020868 units=km
New Line.ND61062195$ND61064857 phases=4 Bus1=61062195.0.1.2.3 Bus2=61064857.0.1.2.3 LineCode=336_ACSR_3PH_336_ACSR_N_12KV_4 Length=0.090187 units=km
New Line.ND61064857$ND61062376 phases=3 Bus1=61064857.1.2.3 Bus2=61062376.1.2.3 LineCode=1/0_CU_3PH_12KV_3 Length=0.0351 units=km
New Line.ND61064857$ND61064858 phases=4 Bus1=61064857.0.1.2.3 Bus2=61064858.0.1.2.3 LineCode=336_ACSR_3PH_336_ACSR_N_12KV_4 Length=0.126208 units=km
New Line.171085E$ND61064858 phases=4 Bus1=61064858.0.1.2.3 Bus2=210656555.0.1.2.3 LineCode=336_ACSR_3PH_336_ACSR_N_12KV_4 Length=0.135746 units=km
New Line.BF06950$ND61062376 phases=2 Bus1=61062376.2.3 Bus2=218948734.2.3 LineCode=4_ACSR_2PH_12KV_2 Length=0.0029 units=km
New Line.P5534155-B$244018838 phases=3 Bus1=244018666.1.2.3 Bus2=244018841.1.2.3 LineCode=1/0_JCN_3PH_12KV_3 Length=0.001885 units=km
New Line.P5200278-A$182706890 phases=3 Bus1=182706893.1.2.3 Bus2=152809925.1.2.3 LineCode=2_CLP_3PH_12KV_3 Length=0.002463 units=km
New Line.244018838$244018811 phases=3 Bus1=244018840.1.2.3 Bus2=244018813.1.2.3 LineCode=1/0_JCN_3PH_12KV_3 Length=0.109505 units=km
New Line.182706917$P5200278-B phases=3 Bus1=152809943.1.2.3 Bus2=182706920.1.2.3 LineCode=2_CLP_3PH_12KV_3 Length=0.044054 units=km
New Line.244018811$P5713291-1 phases=3 Bus1=244018814.1.2.3 Bus2=244018767.1.2.3 LineCode=1/0_JCN_3PH_12KV_3 Length=0.00182 units=km
New Line.P5198930-1$182706917 phases=3 Bus1=182706919.1.2.3 Bus2=61010525.1.2.3 LineCode=2_CLP_3PH_12KV_3 Length=0.008068 units=km
New Line.69623185$P5121290-2 phases=3 Bus1=69623188.1.2.3 Bus2=183510472.1.2.3 LineCode=UNK_UNK_3PH_12KV_3 Length=1e-05 units=km
New Line.69623136$P5121290-1 phases=3 Bus1=183510463.1.2.3 Bus2=69623139.1.2.3 LineCode=UNK_UNK_3PH_12KV_3 Length=1e-05 units=km
New Line.1020090E$P5147826-1 phases=3 Bus1=61022879.1.2.3 Bus2=61010573.1.2.3 LineCode=2_CLP_3PH_12KV_3 Length=0.04986 units=km
New Line.BF04793$ND179096175 phases=3 Bus1=179096175.1.2.3 Bus2=179096362.1.2.3 LineCode=1/0_ACSR_1PH_12KV_3 Length=0.100013 units=km
New Line.B5336296-2$1126808E phases=2 Bus1=61000660.1.3 Bus2=61000757.1.3 LineCode=2_AL_2PH_12KV_2 Length=0.032183 units=km
New Line.1020092E$P5198537-1 phases=3 Bus1=61000817.1.2.3 Bus2=61010621.1.2.3 LineCode=1/0_CLP_3PH_12KV_3 Length=0.071822 units=km
New Line.1019923E$BF04793 phases=3 Bus1=179096361.1.2.3 Bus2=60784355.1.2.3 LineCode=1/0_ACSR_1PH_12KV_3 Length=0.066515 units=km
New Line.B5336296-1$B5336295-2 phases=2 Bus1=61000748.1.3 Bus2=61000685.1.3 LineCode=2_AL_2PH_12KV_2 Length=0.15692 units=km
New Line.1019933E$ND60785054 phases=2 Bus1=60785054.1.3 Bus2=60784904.1.3 LineCode=1/0_ACSR_1PH_12KV_2 Length=0.048231 units=km
New Line.ND70010111$FD07952 phases=3 Bus1=70010111.1.2.3 Bus2=70010105.1.2.3 LineCode=336_ACSR_3PH_12KV_3 Length=0.006575 units=km
New Line.1073841E$185191765 phases=3 Bus1=61022892.1.2.3 Bus2=185191767.1.2.3 LineCode=2_CLP_3PH_12KV_3 Length=0.088492 units=km
New Line.1073840E$P5147566-A phases=3 Bus1=61022905.1.2.3 Bus2=152809450.1.2.3 LineCode=2_CLP_3PH_12KV_3 Length=0.066754 units=km
New Line.1019941E$1019942E phases=2 Bus1=60784201.1.3 Bus2=60784459.1.3 LineCode=1/0_ACSR_1PH_12KV_2 Length=0.047076 units=km
New Line.FD07952$P5534150-1 phases=2 Bus1=70010124.2.3 Bus2=70010142.2.3 LineCode=2_CLP_2PH_12KV_2 Length=0.014656 units=km
New Line.185191765$P5147804-1 phases=3 Bus1=185191768.1.2.3 Bus2=61010669.1.2.3 LineCode=2_CLP_3PH_12KV_3 Length=0.002274 units=km
New Line.P5147566-B$P5526505-1 phases=3 Bus1=152809468.1.2.3 Bus2=61050628.1.2.3 LineCode=2_CLP_3PH_12KV_3 Length=0.136465 units=km
New Line.PH663$180156471 phases=3 Bus1=61022931.1.2.3 Bus2=180156473.1.2.3 LineCode=2_CLP_3PH_12KV_3 Length=0.046481 units=km
New Line.2079010E$P5331297-1 phases=3 Bus1=61002042.1.2.3 Bus2=61010953.1.2.3 LineCode=2_CLP_3PH_12KV_3 Length=0.159657 units=km
New Line.180156471$P5455317-1 phases=3 Bus1=180156474.1.2.3 Bus2=153607566.1.2.3 LineCode=2_CLP_3PH_12KV_3 Length=0.004156 units=km
New Line.761719E$P5127542-A phases=2 Bus1=61022918.1.3 Bus2=61010800.1.3 LineCode=2_AL_2PH_12KV_2 Length=0.096301 units=km
New Line.P5127542-B$P5127543-A phases=2 Bus1=61010809.1.3 Bus2=61010877.1.3 LineCode=2_AL_2PH_12KV_2 Length=0.005918 units=km
New Line.ND215530704$12399E phases=1 Bus1=98538119.3 Bus2=215530704.3 LineCode=2_JCN_1PH_12KV_1 Length=0.589268 units=km
New Line.B5127412-1$399E phases=1 Bus1=61022957.1 Bus2=61011280.1 LineCode=2_CLP_1PH_12KV_1 Length=0.143561 units=km
New Line.2183224E$BS1922-1 phases=3 Bus1=61010998.1.2.3 Bus2=61011014.1.2.3 LineCode=2_CLP_3PH_12KV_3 Length=0.004198 units=km
New Line.B5009423-2$ND215530704 phases=1 Bus1=215530704.3 Bus2=61011865.3 LineCode=2_CLP_1PH_12KV_1 Length=0.580087 units=km
New Line.ND215530704$B5009424-1 phases=1 Bus1=215530704.3 Bus2=61012000.3 LineCode=2_CLP_1PH_12KV_1 Length=0.112749 units=km
New Line.BS1922-1$B5163557-1 phases=3 Bus1=61011015.1.2.3 Bus2=61011136.1.2.3 LineCode=2_CLP_3PH_12KV_3 Length=0.085931 units=km
New Line.B5127412-2$B5127413-1 phases=1 Bus1=61011289.1 Bus2=61011352.1 LineCode=2_CLP_1PH_12KV_1 Length=0.070516 units=km
New Line.B5009423-1$B5009422-2 phases=1 Bus1=61011856.3 Bus2=61011793.3 LineCode=2_CLP_1PH_12KV_1 Length=0.069655 units=km
New Line.B5009424-2$B5011001-2 phases=1 Bus1=61012009.3 Bus2=61011937.3 LineCode=2_CLP_1PH_12KV_1 Length=0.067637 units=km
New Line.B5163558-2$B5163557-2 phases=2 Bus1=61011145.1.3 Bus2=61011073.1.3 LineCode=2_CLP_2PH_12KV_2 Length=0.07994 units=km
New Line.B5127413-2$B5127414-2 phases=1 Bus1=61011361.1 Bus2=61011433.1 LineCode=2_CLP_1PH_12KV_1 Length=0.09283 units=km
New Line.B5011002-2$B5011001-1 phases=1 Bus1=61011928.3 Bus2=61011649.3 LineCode=2_CLP_1PH_12KV_1 Length=0.083443 units=km
New Line.B5011003-2$B5009422-1 phases=1 Bus1=61011784.3 Bus2=61011721.3 LineCode=2_CLP_1PH_12KV_1 Length=0.023778 units=km
New Line.FD08312$P5055485-1 phases=3 Bus1=61022944.1.2.3 Bus2=61012072.1.2.3 LineCode=2_CLP_3PH_12KV_3 Length=0.137073 units=km
New Line.B5127414-1$B5127415-1 phases=1 Bus1=61011424.1 Bus2=61011496.1 LineCode=2_CLP_1PH_12KV_1 Length=0.121239 units=km
New Line.B5011004-1$B5011003-1 phases=1 Bus1=61011712.3 Bus2=61011568.3 LineCode=2_CLP_1PH_12KV_1 Length=0.080322 units=km
New Line.B5127415-2$B5127416-1 phases=1 Bus1=61011505.1 Bus2=61011208.1 LineCode=2_CLP_1PH_12KV_1 Length=0.054393 units=km
New Line.B5127565-2$369E phases=1 Bus1=61012117.3 Bus2=61012214.3 LineCode=2_CLP_1PH_12KV_1 Length=0.198961 units=km
New Line.B5127566-1$B5127565-1 phases=1 Bus1=61012205.3 Bus2=61012133.3 LineCode=2_CLP_1PH_12KV_1 Length=0.0063 units=km
New Line.E12522YT1$E12522Y phases=4 Bus1=61009183.0.1.2.3 Bus2=242375233.0.1.2.3 LineCode=336_ACSR_3PH_336_ACSR_N_12KV_4 Length=0.00733 units=km
New Line.ND240535549$E12522YT1 phases=4 Bus1=242375234.0.1.2.3 Bus2=240535483.0.1.2.3 LineCode=336_ACSR_3PH_336_ACSR_N_12KV_4 Length=0.060274 units=km
New Line.ND240535547$E12524Y phases=4 Bus1=240535501.0.1.2.3 Bus2=242405168.0.1.2.3 LineCode=336_ACSR_3PH_336_ACSR_N_12KV_4 Length=0.098254 units=km
New Line.2376843E$GS2462-1 phases=3 Bus1=61009426.1.2.3 Bus2=59890597.1.2.3 LineCode=1000_CLP_3PH_12KV_3 Length=0.030761 units=km
New Line.ND241665304$ND61062830 phases=4 Bus1=61062830.0.1.2.3 Bus2=241665304.0.1.2.3 LineCode=336_ACSR_3PH_336_ACSR_N_12KV_4 Length=0.096601 units=km
New Line.RCS0639$ND241665304 phases=4 Bus1=241665304.0.1.2.3 Bus2=61051900.0.1.2.3 LineCode=336_ACSR_3PH_336_ACSR_N_12KV_4 Length=0.004361 units=km
New Line.FD12574$69623185 phases=3 Bus1=61025792.1.2.3 Bus2=69623174.1.2.3 LineCode=2_CLP_3PH_12KV_3 Length=0.10582 units=km
New Line.FD12572$144077613 phases=2 Bus1=61024772.2.3 Bus2=144077615.2.3 LineCode=2_CLP_2PH_12KV_2 Length=0.16797 units=km
New Line.359E$J821-1P phases=2 Bus1=229785247.1.2 Bus2=229785284.1.2 LineCode=1/0_JCN_2PH_12KV_2 Length=0.14919 units=km
New Line.144077613$P5127944-B phases=2 Bus1=144077616.2.3 Bus2=144077526.2.3 LineCode=2_CLP_2PH_12KV_2 Length=0.002394 units=km
New Line.176444832$FD12573 phases=2 Bus1=61025296.1.2 Bus2=176444834.1.2 LineCode=2_CLP_2PH_12KV_2 Length=0.070152 units=km
New Line.J821-2P$229785445 phases=2 Bus1=229785300.1.2 Bus2=229785447.1.2 LineCode=1/0_JCN_2PH_12KV_2 Length=0.154884 units=km
New Line.176444832$P5127933-B phases=2 Bus1=176444835.1.2 Bus2=144073663.1.2 LineCode=2_CLP_2PH_12KV_2 Length=0.001914 units=km
New Line.586E$J821-3P phases=2 Bus1=229785292.1.2 Bus2=229785267.1.2 LineCode=1/0_JCN_2PH_12KV_2 Length=0.07231 units=km
New Line.ND183510572$69623136 phases=2 Bus1=69623128.2.3 Bus2=183510572.2.3 LineCode=2_CLP_2PH_12KV_2 Length=0.011335 units=km
New Line.229785445$P5650818-1 phases=2 Bus1=229785448.1.2 Bus2=229785396.1.2 LineCode=1/0_JCN_2PH_12KV_2 Length=0.003383 units=km
New Line.183510615$ND183510572 phases=1 Bus1=183510572.3 Bus2=183510617.3 LineCode=2_CLP_1PH_12KV_1 Length=0.056517 units=km
New Line.446E$BS4802-T phases=3 Bus1=195248203.1.2.3 Bus2=195248248.1.2.3 LineCode=1/0_JCN_3PH_12KV_3 Length=0.057249 units=km
New Line.ND183510572$P5121291-B phases=1 Bus1=183510572.3 Bus2=61025904.3 LineCode=2_CLP_1PH_12KV_1 Length=0.08429 units=km
New Line.176444859$P5127933-A phases=2 Bus1=144073655.1.2 Bus2=176444862.1.2 LineCode=2_CLP_2PH_12KV_2 Length=0.192233 units=km
New Line.183510615$P5194594-2 phases=1 Bus1=183510618.3 Bus2=61030628.3 LineCode=2_CLP_1PH_12KV_1 Length=0.003768 units=km
New Line.176444894$176444859 phases=2 Bus1=176444861.1.2 Bus2=176444896.1.2 LineCode=2_CLP_2PH_12KV_2 Length=0.211965 units=km
New Line.ND195248374$BS4802-R phases=3 Bus1=195248231.1.2.3 Bus2=195248374.1.2.3 LineCode=1/0_JCN_3PH_12KV_3 Length=0.239782 units=km
New Line.P5121291-A$261496843 phases=1 Bus1=61025895.3 Bus2=261496845.3 LineCode=2_CLP_1PH_12KV_1 Length=0.151726 units=km
New Line.BS4802-L$150E phases=3 Bus1=195248240.1.2.3 Bus2=61030949.1.2.3 LineCode=1/0_JCN_3PH_12KV_3 Length=0.018116 units=km
New Line.P5427986-1$ND195248374 phases=3 Bus1=195248374.1.2.3 Bus2=61030965.1.2.3 LineCode=2_CLP_3PH_12KV_3 Length=0.170953 units=km
New Line.P5127934-B$176444894 phases=2 Bus1=176444897.1.2 Bus2=144073294.1.2 LineCode=2_CLP_2PH_12KV_2 Length=0.001676 units=km
New Line.261496843$P5121292-2 phases=1 Bus1=261496846.3 Bus2=174536995.3 LineCode=2_CLP_1PH_12KV_1 Length=0.002468 units=km
New Line.P5127943-A$188176250 phases=2 Bus1=144073415.2.3 Bus2=188176253.2.3 LineCode=2_CLP_2PH_12KV_2 Length=0.002987 units=km
New Line.P5127942-1$188176250 phases=2 Bus1=188176252.2.3 Bus2=72281693.2.3 LineCode=2_CLP_2PH_12KV_2 Length=0.151883 units=km
New Line.P5127934-A$176444925 phases=2 Bus1=144073286.1.2 Bus2=176444928.1.2 LineCode=2_CLP_2PH_12KV_2 Length=0.236354 units=km
New Line.261496816$P5121292-1 phases=1 Bus1=174536986.3 Bus2=261496819.3 LineCode=2_CLP_1PH_12KV_1 Length=0.166157 units=km
New Line.174537233$261496816 phases=1 Bus1=261496818.3 Bus2=174537235.3 LineCode=2_CLP_1PH_12KV_1 Length=0.118782 units=km
New Line.P5127942-2$P5127941-1 phases=2 Bus1=72281702.2.3 Bus2=183517005.2.3 LineCode=2_CLP_2PH_12KV_2 Length=0.318549 units=km
New Line.1528448E$204758803 phases=3 Bus1=61031035.1.2.3 Bus2=204758805.1.2.3 LineCode=1/0_JCN_3PH_12KV_3 Length=0.011126 units=km
New Line.219995550$176444925 phases=2 Bus1=176444927.1.2 Bus2=219995552.1.2 LineCode=2_CLP_2PH_12KV_2 Length=0.266056 units=km
New Line.174537233$P5121293-1 phases=1 Bus1=174537236.3 Bus2=174537084.3 LineCode=2_CLP_1PH_12KV_1 Length=0.003151 units=km
New Line.204758803$ND61031091 phases=3 Bus1=204758806.1.2.3 Bus2=204758778.1.2.3 LineCode=1/0_JCN_3PH_12KV_3 Length=0.005828 units=km
New Line.P5127935-1$219995550 phases=2 Bus1=219995553.1.2 Bus2=219995477.1.2 LineCode=2_CLP_2PH_12KV_2 Length=0.003179 units=km
New Line.P5127941-2$262818709 phases=2 Bus1=183517014.2.3 Bus2=262818711.2.3 LineCode=2_CLP_2PH_12KV_2 Length=0.102108 units=km
New Line.174537208$P5121293-2 phases=1 Bus1=174537093.3 Bus2=174537211.3 LineCode=2_CLP_1PH_12KV_1 Length=0.072335 units=km
New Line.P5127935-2$219995579 phases=2 Bus1=219995486.1.2 Bus2=219995582.1.2 LineCode=2_CLP_2PH_12KV_2 Length=0.186265 units=km
New Line.262818709$P5127940-B phases=2 Bus1=262818712.2.3 Bus2=61025105.2.3 LineCode=2_CLP_2PH_12KV_2 Length=0.142567 units=km
New Line.174537208$174537183 phases=1 Bus1=174537210.3 Bus2=174537185.3 LineCode=2_CLP_1PH_12KV_1 Length=0.078241 units=km
New Line.219995579$181636309 phases=2 Bus1=219995581.1.2 Bus2=181636311.1.2 LineCode=2_CLP_2PH_12KV_2 Length=0.10331 units=km
New Line.262818682$P5127940-A phases=2 Bus1=61025096.2.3 Bus2=262818685.2.3 LineCode=2_CLP_2PH_12KV_2 Length=0.003417 units=km
New Line.P5127936-A$181636309 phases=2 Bus1=181636312.1.2 Bus2=181636215.1.2 LineCode=2_CLP_2PH_12KV_2 Length=0.002309 units=km
New Line.P5121294-2$174537183 phases=1 Bus1=174537186.3 Bus2=61026165.3 LineCode=2_CLP_1PH_12KV_1 Length=0.002425 units=km
New Line.176444765$262818682 phases=2 Bus1=262818684.2.3 Bus2=176444767.2.3 LineCode=2_CLP_2PH_12KV_2 Length=0.121798 units=km
New Line.P5127936-B$181636336 phases=2 Bus1=181636223.1.2 Bus2=181636339.1.2 LineCode=2_CLP_2PH_12KV_2 Length=0.163509 units=km
New Line.P5127939-B$176444765 phases=2 Bus1=176444768.2.3 Bus2=61025182.2.3 LineCode=2_CLP_2PH_12KV_2 Length=0.162948 units=km
New Line.181636336$P5127937-2 phases=2 Bus1=181636338.1.2 Bus2=72281798.1.2 LineCode=2_CLP_2PH_12KV_2 Length=0.201144 units=km
New Line.176444792$P5127939-A phases=2 Bus1=61025173.2.3 Bus2=176444795.2.3 LineCode=2_CLP_2PH_12KV_2 Length=0.002673 units=km
New Line.181636640$P5127937-1 phases=2 Bus1=72281789.1.2 Bus2=181636642.1.2 LineCode=2_CLP_2PH_12KV_2 Length=0.169298 units=km
New Line.181636667$176444792 phases=2 Bus1=176444794.2.3 Bus2=181636669.2.3 LineCode=2_CLP_2PH_12KV_2 Length=0.220006 units=km
New Line.P5127938-A$181636640 phases=2 Bus1=181636643.1.2 Bus2=61025689.1.2 LineCode=2_CLP_2PH_12KV_2 Length=0.002547 units=km
New Line.P5127938-B$181636667 phases=2 Bus1=181636670.2.3 Bus2=61025698.2.3 LineCode=2_CLP_2PH_12KV_2 Length=0.13207 units=km
New Line.1060074E$BF06949 phases=3 Bus1=218948774.1.2.3 Bus2=60991359.1.2.3 LineCode=4_ACSR_3PH_12KV_3 Length=0.006656 units=km
New Line.ND61064858$PS0429 phases=3 Bus1=61064858.1.2.3 Bus2=61050979.1.2.3 LineCode=336_ACSR_3PH_12KV_3 Length=0.007939 units=km
New Line.ND61062376$ND61061562 phases=3 Bus1=61062376.1.2.3 Bus2=61061562.1.2.3 LineCode=1/0_CU_3PH_12KV_3 Length=0.094357 units=km
New Line.1060074E$1060075E phases=2 Bus1=60991359.1.3 Bus2=60991384.1.3 LineCode=4_ACSR_3PH_12KV_2 Length=0.040674 units=km
New Line.171085E$PS0084 phases=4 Bus1=210656555.0.1.2.3 Bus2=61050859.0.1.2.3 LineCode=336_ACSR_3PH_336_ACSR_N_12KV_4 Length=0.146669 units=km
New Line.ND61061562$BF13024 phases=2 Bus1=61061562.2.3 Bus2=61050948.2.3 LineCode=4_ACSR_2PH_12KV_2 Length=0.00323 units=km
New Line.ND61061562$ND61061563 phases=3 Bus1=61061562.1.2.3 Bus2=61061563.1.2.3 LineCode=1/0_CU_3PH_12KV_3 Length=0.089597 units=km
New Line.1128249E$BF06950 phases=2 Bus1=218948735.2.3 Bus2=60991434.2.3 LineCode=4_ACSR_2PH_12KV_2 Length=0.014249 units=km
New Line.1060075E$1060077E phases=2 Bus1=60991384.1.3 Bus2=61032176.1.3 LineCode=4_ACSR_3PH_12KV_2 Length=0.080014 units=km
New Line.ND61061563$BF13025 phases=2 Bus1=61061563.1.2 Bus2=61050932.1.2 LineCode=4_ACSR_2PH_12KV_2 Length=0.033846 units=km
New Line.ND61061563$ND61062456 phases=3 Bus1=61061563.1.2.3 Bus2=61062456.1.2.3 LineCode=1/0_CU_3PH_12KV_3 Length=0.090192 units=km
New Line.ND61062456$ND173515870 phases=3 Bus1=61062456.1.2.3 Bus2=173515870.1.2.3 LineCode=1/0_CU_3PH_12KV_3 Length=0.059421 units=km
New Line.PS0084$ND216306560 phases=4 Bus1=61050858.0.1.2.3 Bus2=216306560.0.1.2.3 LineCode=336_ACSR_3PH_336_ACSR_N_12KV_4 Length=0.00183 units=km
New Line.1060077E$1213376E phases=2 Bus1=61032176.1.3 Bus2=60991305.1.3 LineCode=4_ACSR_2PH_12KV_2 Length=0.171172 units=km
New Line.1128249E$1128247E phases=2 Bus1=60991434.2.3 Bus2=60991534.2.3 LineCode=4_ACSR_2PH_12KV_2 Length=0.092485 units=km
New Line.BF13024$1128236E phases=2 Bus1=61050949.2.3 Bus2=60991559.2.3 LineCode=4_ACSR_2PH_12KV_2 Length=0.078795 units=km
New Line.ND61062456$BF13026 phases=2 Bus1=61062456.1.3 Bus2=61050916.1.3 LineCode=4_ACSR_2PH_12KV_2 Length=0.058586 units=km
New Line.ND311990982$ND216306560 phases=4 Bus1=216306560.0.1.2.3 Bus2=311990982.0.1.2.3 LineCode=336_ACSR_3PH_336_ACSR_N_12KV_4 Length=0.001822 units=km
New Line.1128247E$1128246E phases=2 Bus1=60991534.2.3 Bus2=60991509.2.3 LineCode=4_ACSR_2PH_12KV_2 Length=0.046161 units=km
New Line.1128236E$1128237E phases=2 Bus1=60991559.2.3 Bus2=60991584.2.3 LineCode=4_ACSR_2PH_12KV_2 Length=0.056211 units=km
New Line.BF13025$1126817E phases=2 Bus1=61050933.1.2 Bus2=60991634.1.2 LineCode=4_ACSR_2PH_12KV_2 Length=0.019371 units=km
New Line.ND173515870$BF13027 phases=3 Bus1=173515870.1.2.3 Bus2=61062457.1.2.3 LineCode=1/0_CU_3PH_12KV_3 Length=0.059421 units=km
New Line.1126817E$1126819E phases=2 Bus1=60991634.1.2 Bus2=60991659.1.2 LineCode=4_ACSR_2PH_12KV_2 Length=0.115868 units=km
New Line.BF13026$1126816E phases=2 Bus1=61050917.1.3 Bus2=60991709.1.3 LineCode=4_ACSR_2PH_12KV_2 Length=0.019668 units=km
New Line.1128237E$1128238E phases=2 Bus1=60991584.2.3 Bus2=61033667.2.3 LineCode=4_ACSR_2PH_12KV_2 Length=0.058653 units=km
New Line.ND61062390$ND311990982 phases=4 Bus1=311990982.0.1.2.3 Bus2=61062390.0.1.2.3 LineCode=336_ACSR_3PH_336_ACSR_N_12KV_4 Length=0.051208 units=km
New Line.1128238E$1128241E phases=2 Bus1=61033667.2.3 Bus2=60991609.2.3 LineCode=4_ACSR_2PH_12KV_2 Length=0.092202 units=km
New Line.1126819E$1126820E phases=2 Bus1=60991659.1.2 Bus2=60991684.1.2 LineCode=4_ACSR_2PH_12KV_2 Length=0.054836 units=km
New Line.1126816E$1126815E phases=2 Bus1=60991709.1.3 Bus2=60991734.1.3 LineCode=4_ACSR_2PH_12KV_2 Length=0.05965 units=km
New Line.1079027E$ND61062390 phases=2 Bus1=61062390.1.2 Bus2=61051035.1.2 LineCode=4_ACSR_2PH_12KV_2 Length=0.003828 units=km
New Line.BF13027$ND61062886 phases=3 Bus1=61050901.1.2.3 Bus2=61062886.1.2.3 LineCode=1/0_CU_3PH_12KV_3 Length=0.028932 units=km
New Line.ND61062390$ND61063192 phases=4 Bus1=61062390.0.1.2.3 Bus2=61063192.0.1.2.3 LineCode=336_ACSR_3PH_336_ACSR_N_12KV_4 Length=0.042943 units=km
New Line.1126820E$1126821E phases=2 Bus1=60991684.1.2 Bus2=60991409.1.2 LineCode=4_ACSR_2PH_12KV_2 Length=0.044699 units=km
New Line.ND61062886$1207494E phases=2 Bus1=61062886.1.3 Bus2=60991834.1.3 LineCode=4_ACSR_2PH_12KV_2 Length=0.126442 units=km
New Line.ND61062886$1126807E phases=2 Bus1=61062886.1.3 Bus2=60991884.1.3 LineCode=4_ACSR_2PH_12KV_2 Length=0.020404 units=km
New Line.1126815E$1126814E phases=2 Bus1=60991734.1.3 Bus2=61033721.1.3 LineCode=4_ACSR_2PH_12KV_2 Length=0.056222 units=km
New Line.ND61063192$ND61062414 phases=4 Bus1=61063192.0.1.2.3 Bus2=61062414.0.1.2.3 LineCode=4/0_ACSR_3PH_4/0_ACSR_N_12KV_4 Length=0.040339 units=km
New Line.ND61064690$ND61063192 phases=4 Bus1=61063192.0.1.2.3 Bus2=61064690.0.1.2.3 LineCode=336_ACSR_3PH_336_ACSR_N_12KV_4 Length=0.035162 units=km
New Line.1126807E$ND173515844 phases=2 Bus1=60991884.1.3 Bus2=173515844.1.3 LineCode=4_ACSR_2PH_12KV_2 Length=0.057585 units=km
New Line.ND61064690$ND179096225 phases=4 Bus1=61064690.0.1.2.3 Bus2=179096225.0.1.2.3 LineCode=336_ACSR_3PH_336_ACSR_N_12KV_4 Length=0.071997 units=km
New Line.ND61064690$BF06941 phases=2 Bus1=61064690.1.3 Bus2=218948685.1.3 LineCode=4_ACSR_2PH_12KV_2 Length=0.041537 units=km
New Line.1079027E$BF06078 phases=2 Bus1=61051034.1.2 Bus2=239623591.1.2 LineCode=4_ACSR_2PH_12KV_2 Length=0.02262 units=km
New Line.1126814E$1126813E phases=2 Bus1=61033721.1.3 Bus2=60991759.1.3 LineCode=4_ACSR_2PH_12KV_2 Length=0.054546 units=km
New Line.1207494E$1207497E phases=2 Bus1=60991834.1.3 Bus2=60991859.1.3 LineCode=4_ACSR_2PH_12KV_2 Length=0.105913 units=km
New Line.ND61062414$1020090E phases=3 Bus1=61062414.1.2.3 Bus2=61022878.1.2.3 LineCode=4/0_ACSR_3PH_12KV_3 Length=0.043143 units=km
New Line.ND61062414$ND61062415 phases=3 Bus1=61062414.1.2.3 Bus2=61062415.1.2.3 LineCode=4/0_ACSR_3PH_12KV_3 Length=0.090495 units=km
New Line.BF04794$ND179096225 phases=3 Bus1=179096225.1.2.3 Bus2=179096274.1.2.3 LineCode=1/0_CU_3PH_12KV_3 Length=0.023308 units=km
New Line.ND173515844$1126810E phases=2 Bus1=173515844.1.3 Bus2=60991909.1.3 LineCode=4_ACSR_2PH_12KV_2 Length=0.094456 units=km
New Line.ND61062415$1020092E phases=3 Bus1=61062415.1.2.3 Bus2=61000816.1.2.3 LineCode=4/0_ACSR_3PH_12KV_3 Length=0.010881 units=km
New Line.1126813E$1126812E phases=2 Bus1=60991759.1.3 Bus2=61033746.1.3 LineCode=4_ACSR_2PH_12KV_2 Length=0.025695 units=km
New Line.1207497E$1207500E phases=2 Bus1=60991859.1.3 Bus2=61034702.1.3 LineCode=4_ACSR_2PH_12KV_2 Length=0.044717 units=km
New Line.ND179096225$ND61061577 phases=4 Bus1=179096225.0.1.2.3 Bus2=61061577.0.1.2.3 LineCode=336_ACSR_3PH_336_ACSR_N_12KV_4 Length=0.11253 units=km
New Line.ND173515844$1126808E phases=2 Bus1=173515844.1.3 Bus2=61062602.1.3 LineCode=4_ACSR_2PH_12KV_2 Length=0.057585 units=km
New Line.ND61062415$1739164E phases=4 Bus1=61062415.0.1.2.3 Bus2=84322249.0.1.2.3 LineCode=4/0_ACSR_3PH_4/0_ACSR_N_12KV_4 Length=0.048387 units=km
New Line.1207500E$1207751E phases=2 Bus1=61034702.1.3 Bus2=169198992.1.3 LineCode=4_ACSR_2PH_12KV_2 Length=0.047323 units=km
New Line.1126810E$E75315Y phases=2 Bus1=60991909.1.3 Bus2=177764608.1.3 LineCode=4_ACSR_2PH_12KV_2 Length=0.138989 units=km
New Line.ND61061577$ND179096175 phases=4 Bus1=61061577.0.1.2.3 Bus2=179096175.0.1.2.3 LineCode=336_ACSR_3PH_336_ACSR_N_12KV_4 Length=0.018632 units=km
New Line.BF06078$1079029E phases=2 Bus1=239623592.1.2 Bus2=61000576.1.2 LineCode=4_ACSR_2PH_12KV_2 Length=0.011106 units=km
New Line.1019932E$BF06941 phases=2 Bus1=218948686.1.3 Bus2=61033492.1.3 LineCode=4_ACSR_2PH_12KV_2 Length=0.012744 units=km
New Line.1073843E$ND61061577 phases=3 Bus1=61061577.1.2.3 Bus2=61051155.1.2.3 LineCode=2_ACSR_3PH_12KV_3 Length=0.001805 units=km
New Line.1739164E$ND84322220 phases=4 Bus1=84322249.0.1.2.3 Bus2=84322220.0.1.2.3 LineCode=4/0_ACSR_3PH_4/0_ACSR_N_12KV_4 Length=0.039938 units=km