! OpenDSS script generated from multiconductor network
Clear

New Circuit.mc_network basekv=12.0 pu=1.000000 angle=0.00 frequency=60.0 phases=3 Mvasc3=143993 Mvasc1=47997.6
~ bus1=-8888882185145.1.2.3

! Line codes
New LineCode.350_AL_3PH_12KV_3 nphases=3 units=km Rmatrix=[ 0.000999 | 0 0.000999 | 0 0 0.000999 ] Xmatrix=[ 0.000759 | 0 0.000759 | 0 0 0.000759 ] Cmatrix=[ 0 | 0 0 | 0 0 0 ]
New LineCode.1/0_JCN_3PH_12KV_3 nphases=3 units=km Rmatrix=[ 0.027001 | 0 0.027001 | 0 0 0.027001 ] Xmatrix=[ 0.008253 | 0 0.008253 | 0 0 0.008253 ] Cmatrix=[ 0 | 0 0 | 0 0 0 ]
New LineCode.6_CU_1PH_12KV_2 nphases=2 units=km Rmatrix=[ 0.081378 | 0 0.081378 ] Xmatrix=[ 0.028845 | 0 0.028845 ] Cmatrix=[ 0 | 0 0 ]
New LineCode.2_CLP_3PH_12KV_3 nphases=3 units=km Rmatrix=[ 0.052195 | 0 0.052195 | 0 0 0.052195 ] Xmatrix=[ 0.011002 | 0 0.011002 | 0 0 0.011002 ] Cmatrix=[ 0 | 0 0 | 0 0 0 ]
New LineCode.336_ACSR_3PH_12KV_3 nphases=3 units=km Rmatrix=[ 0.01098 | 0 0.01098 | 0 0 0.01098 ] Xmatrix=[ 0.024589 | 0 0.024589 | 0 0 0.024589 ] Cmatrix=[ 0 | 0 0 | 0 0 0 ]
New LineCode.4_ACSR_3PH_4_ACSR_N_12KV_4 nphases=4 units=km Rmatrix=[ 0.005415 | 0 0.005415 | 0 0 0.005415 | 0 0 0 0.005415 ] Xmatrix=[ 0.001821 | 0 0.001821 | 0 0 0.001821 | 0 0 0 0.001821 ] Cmatrix=[ 0 | 0 0 | 0 0 0 | 0 0 0 0 ]
New LineCode.2_CLP_1PH_12KV_1 nphases=1 units=km Rmatrix=[ 0.020139 ] Xmatrix=[ 0.004245 ] Cmatrix=[ 0 ]
New LineCode.4_ACSR_3PH_12KV_3 nphases=3 units=km Rmatrix=[ 0.029656 | 0 0.029656 | 0 0 0.029656 ] Xmatrix=[ 0.010882 | 0 0.010882 | 0 0 0.010882 ] Cmatrix=[ 0 | 0 0 | 0 0 0 ]
New LineCode.1/0_CLP_3PH_12KV_3 nphases=3 units=km Rmatrix=[ 0.030212 | 0 0.030212 | 0 0 0.030212 ] Xmatrix=[ 0.009234 | 0 0.009234 | 0 0 0.009234 ] Cmatrix=[ 0 | 0 0 | 0 0 0 ]
New LineCode.2_JCN_3PH_12KV_3 nphases=3 units=km Rmatrix=[ 0.003957 | 0 0.003957 | 0 0 0.003957 ] Xmatrix=[ 0.000834 | 0 0.000834 | 0 0 0.000834 ] Cmatrix=[ 0 | 0 0 | 0 0 0 ]
New LineCode.2_AL_3PH_12KV_3 nphases=3 units=km Rmatrix=[ 0.13838 | 0 0.13838 | 0 0 0.13838 ] Xmatrix=[ 0.029168 | 0 0.029168 | 0 0 0.029168 ] Cmatrix=[ 0 | 0 0 | 0 0 0 ]
New LineCode.2_JCN_2PH_12KV_2 nphases=2 units=km Rmatrix=[ 0.129288 | 0 0.129288 ] Xmatrix=[ 0.027251 | 0 0.027251 ] Cmatrix=[ 0 | 0 0 ]
New LineCode.1000_JCN_3PH_12KV_3 nphases=3 units=km Rmatrix=[ 0.007615 | 0 0.007615 | 0 0 0.007615 ] Xmatrix=[ 0.011528 | 0 0.011528 | 0 0 0.011528 ] Cmatrix=[ 0 | 0 0 | 0 0 0 ]
New LineCode.653_ACSR_3PH_653_ACSR_N_12KV_3 nphases=3 units=km Rmatrix=[ 0.000277 | 0 0.000277 | 0 0 0.000277 ] Xmatrix=[ 0.001075 | 0 0.001075 | 0 0 0.001075 ] Cmatrix=[ 0 | 0 0 | 0 0 0 ]
New LineCode.653_ACSR_3PH_653_ACSR_N_12KV_4 nphases=4 units=km Rmatrix=[ 0.000277 | 0 0.000277 | 0 0 0.000277 | 0 0 0 0.000277 ] Xmatrix=[ 0.001075 | 0 0.001075 | 0 0 0.001075 | 0 0 0 0.001075 ] Cmatrix=[ 0 | 0 0 | 0 0 0 | 0 0 0 0 ]
New LineCode.336_ACSR_3PH_336_ACSR_N_12KV_4 nphases=4 units=km Rmatrix=[ 0.006283 | 0 0.006283 | 0 0 0.006283 | 0 0 0 0.006283 ] Xmatrix=[ 0.012529 | 0 0.012529 | 0 0 0.012529 | 0 0 0 0.012529 ] Cmatrix=[ 0 | 0 0 | 0 0 0 | 0 0 0 0 ]
New LineCode.1/0_ACSR_2PH_12KV_2 nphases=2 units=km Rmatrix=[ 0.044002 | 0 0.044002 ] Xmatrix=[ 0.035034 | 0 0.035034 ] Cmatrix=[ 0 | 0 0 ]
New LineCode.6_CU_2PH_6_CU_N_12KV_3_N nphases=3 units=km Rmatrix=[ 0.020361 | 0 0.020361 | 0 0 0.020361 ] Xmatrix=[ 0.006576 | 0 0.006576 | 0 0 0.006576 ] Cmatrix=[ 0 | 0 0 | 0 0 0 ]
New LineCode.6_CU_2PH_12KV_2 nphases=2 units=km Rmatrix=[ 0.004358 | 0 0.004358 ] Xmatrix=[ 0.001545 | 0 0.001545 ] Cmatrix=[ 0 | 0 0 ]
New LineCode.336_ACSR_2PH_12KV_2 nphases=2 units=km Rmatrix=[ 0.018553 | 0 0.018553 ] Xmatrix=[ 0.041547 | 0 0.041547 ] Cmatrix=[ 0 | 0 0 ]
New LineCode.1/0_ACSR_3PH_1/0_ACSR_N_12KV_4 nphases=4 units=km Rmatrix=[ 0.025859 | 0 0.025859 | 0 0 0.025859 | 0 0 0 0.025859 ] Xmatrix=[ 0.018688 | 0 0.018688 | 0 0 0.018688 | 0 0 0 0.018688 ] Cmatrix=[ 0 | 0 0 | 0 0 0 | 0 0 0 0 ]
New LineCode.1/0_ACSR_3PH_12KV_3 nphases=3 units=km Rmatrix=[ 0.030141 | 0 0.030141 | 0 0 0.030141 ] Xmatrix=[ 0.023998 | 0 0.023998 | 0 0 0.023998 ] Cmatrix=[ 0 | 0 0 | 0 0 0 ]
New LineCode.4/0_ACSR_3PH_12KV_3 nphases=3 units=km Rmatrix=[ 0.001548 | 0 0.001548 | 0 0 0.001548 ] Xmatrix=[ 0.002188 | 0 0.002188 | 0 0 0.002188 ] Cmatrix=[ 0 | 0 0 | 0 0 0 ]
New LineCode.4_ACSR_2PH_12KV_2 nphases=2 units=km Rmatrix=[ 0.124137 | 0 0.124137 ] Xmatrix=[ 0.045551 | 0 0.045551 ] Cmatrix=[ 0 | 0 0 ]
New LineCode.2_ACSR_1PH_2_ACSR_N_12KV_3_N nphases=3 units=km Rmatrix=[ 0.00677 | 0 0.00677 | 0 0 0.00677 ] Xmatrix=[ 0.00328 | 0 0.00328 | 0 0 0.00328 ] Cmatrix=[ 0 | 0 0 | 0 0 0 ]
New LineCode.4_CU_3PH_4_CU_N_12KV_4 nphases=4 units=km Rmatrix=[ 0.152978 | 0 0.152978 | 0 0 0.152978 | 0 0 0 0.152978 ] Xmatrix=[ 0.075697 | 0 0.075697 | 0 0 0.075697 | 0 0 0 0.075697 ] Cmatrix=[ 0 | 0 0 | 0 0 0 | 0 0 0 0 ]
New LineCode.6_CU_3PH_6_CU_N_12KV_4 nphases=4 units=km Rmatrix=[ 0.004786 | 0 0.004786 | 0 0 0.004786 | 0 0 0 0.004786 ] Xmatrix=[ 0.001546 | 0 0.001546 | 0 0 0.001546 | 0 0 0 0.001546 ] Cmatrix=[ 0 | 0 0 | 0 0 0 | 0 0 0 0 ]
New LineCode.2_CLP_2PH_12KV_2 nphases=2 units=km Rmatrix=[ 0.093072 | 0 0.093072 ] Xmatrix=[ 0.019618 | 0 0.019618 ] Cmatrix=[ 0 | 0 0 ]
New LineCode.1/0_CLP_1PH_12KV_1 nphases=1 units=km Rmatrix=[ 0.187913 ] Xmatrix=[ 0.057435 ] Cmatrix=[ 0 ]
New LineCode.1/0_JCN_2PH_12KV_2 nphases=2 units=km Rmatrix=[ 0.001952 | 0 0.001952 ] Xmatrix=[ 0.000597 | 0 0.000597 ] Cmatrix=[ 0 | 0 0 ]
New LineCode.1/0_JCN_1PH_12KV_1 nphases=1 units=km Rmatrix=[ 0.004221 ] Xmatrix=[ 0.00129 ] Cmatrix=[ 0 ]
New LineCode.750_CLP_3PH_12KV_3 nphases=3 units=km Rmatrix=[ 0.016445 | 0 0.016445 | 0 0 0.016445 ] Xmatrix=[ 0.020197 | 0 0.020197 | 0 0 0.020197 ] Cmatrix=[ 0 | 0 0 | 0 0 0 ]
New LineCode.2_ACSR_2PH_12KV_2 nphases=2 units=km Rmatrix=[ 0.002592 | 0 0.002592 ] Xmatrix=[ 0.001393 | 0 0.001393 ] Cmatrix=[ 0 | 0 0 ]
New LineCode.6_CU_3PH_12KV_3 nphases=3 units=km Rmatrix=[ 0.061534 | 0 0.061534 | 0 0 0.061534 ] Xmatrix=[ 0.021811 | 0 0.021811 | 0 0 0.021811 ] Cmatrix=[ 0 | 0 0 | 0 0 0 ]
New LineCode.336_ACSR_2PH_336_ACSR_N_12KV_3_N nphases=3 units=km Rmatrix=[ 0.00897 | 0 0.00897 | 0 0 0.00897 ] Xmatrix=[ 0.017889 | 0 0.017889 | 0 0 0.017889 ] Cmatrix=[ 0 | 0 0 | 0 0 0 ]
New LineCode.336_ACSR_3PH_336_ACSR_N_12KV_3 nphases=3 units=km Rmatrix=[ 0.006283 | 0 0.006283 | 0 0 0.006283 ] Xmatrix=[ 0.012529 | 0 0.012529 | 0 0 0.012529 ] Cmatrix=[ 0 | 0 0 | 0 0 0 ]
New LineCode.2_ACSR_3PH_12KV_3 nphases=3 units=km Rmatrix=[ 0.017483 | 0 0.017483 | 0 0 0.017483 ] Xmatrix=[ 0.009399 | 0 0.009399 | 0 0 0.009399 ] Cmatrix=[ 0 | 0 0 | 0 0 0 ]
New LineCode.1000_CLP_3PH_12KV_3 nphases=3 units=km Rmatrix=[ 0.071499 | 0 0.071499 | 0 0 0.071499 ] Xmatrix=[ 0.108228 | 0 0.108228 | 0 0 0.108228 ] Cmatrix=[ 0 | 0 0 | 0 0 0 ]
New LineCode.4/0_AL_3PH_12KV_3 nphases=3 units=km Rmatrix=[ 1e-05 | 0 1e-05 | 0 0 1e-05 ] Xmatrix=[ 1e-05 | 0 1e-05 | 0 0 1e-05 ] Cmatrix=[ 0 | 0 0 | 0 0 0 ]
New LineCode.954_ACSR_3PH_954_ACSR_N_12KV_4 nphases=4 units=km Rmatrix=[ 1e-05 | 0 1e-05 | 0 0 1e-05 | 0 0 0 1e-05 ] Xmatrix=[ 1e-05 | 0 1e-05 | 0 0 1e-05 | 0 0 0 1e-05 ] Cmatrix=[ 0 | 0 0 | 0 0 0 | 0 0 0 0 ]

! Lines
New Line.4172392E$P5427284-1 phases=3 Bus1=60800745.1.2.3 Bus2=60800700.1.2.3 LineCode=350_AL_3PH_12KV_3 Length=0.029884 units=km
New Line.237866364$P5523899-1 phases=3 Bus1=237866367.1.2.3 Bus2=95998251.1.2.3 LineCode=1/0_JCN_3PH_12KV_3 Length=0.003618 units=km
New Line.BF31701$4856003E phases=2 Bus1=237277803.2.3 Bus2=59653793.2.3 LineCode=6_CU_1PH_12KV_2 Length=0.041134 units=km
New Line.FD31036$P5400353-1 phases=3 Bus1=60800684.1.2.3 Bus2=60800639.1.2.3 LineCode=2_CLP_3PH_12KV_3 Length=0.065614 units=km
New Line.ND222049258$RCS2495 phases=3 Bus1=222049258.1.2.3 Bus2=222049231.1.2.3 LineCode=336_ACSR_3PH_12KV_3 Length=0.032111 units=km
New Line.FD990S$ND102792753 phases=4 Bus1=102792753.0.1.2.3 Bus2=102792732.0.1.2.3 LineCode=4_ACSR_3PH_4_ACSR_N_12KV_4 Length=0.003528 units=km
New Line.FD990S$102792831 phases=1 Bus1=102792733.2 Bus2=102792833.2 LineCode=2_CLP_1PH_12KV_1 Length=0.018005 units=km
New Line.972E$ND166590765 phases=3 Bus1=166590765.1.2.3 Bus2=166590742.1.2.3 LineCode=4_ACSR_3PH_12KV_3 Length=0.005533 units=km
New Line.4700292E$P5356454-1 phases=3 Bus1=60800444.1.2.3 Bus2=60800591.1.2.3 LineCode=1/0_CLP_3PH_12KV_3 Length=0.042856 units=km
New Line.102792831$P5575478-2 phases=1 Bus1=102792834.2 Bus2=102792777.2 LineCode=2_CLP_1PH_12KV_1 Length=0.001391 units=km
New Line.972E$166590880 phases=3 Bus1=166590743.1.2.3 Bus2=166590882.1.2.3 LineCode=1/0_CLP_3PH_12KV_3 Length=0.018472 units=km
New Line.P5356455-A$1630049E phases=3 Bus1=60800348.1.2.3 Bus2=153122770.1.2.3 LineCode=1/0_CLP_3PH_12KV_3 Length=0.043186 units=km
New Line.166590880$P5612593-A phases=3 Bus1=166590883.1.2.3 Bus2=166590948.1.2.3 LineCode=1/0_CLP_3PH_12KV_3 Length=0.004571 units=km
New Line.ND153468346$PS6785 phases=3 Bus1=153468346.1.2.3 Bus2=240392809.1.2.3 LineCode=336_ACSR_3PH_12KV_3 Length=0.042028 units=km
New Line.PS6785$867E phases=3 Bus1=240392808.1.2.3 Bus2=153468324.1.2.3 LineCode=336_ACSR_3PH_12KV_3 Length=0.005897 units=km
New Line.P5409679-2$FD31618 phases=1 Bus1=49900161.3 Bus2=49899423.3 LineCode=2_CLP_1PH_12KV_1 Length=0.131415 units=km
New Line.P5356456-1$P5356455-B phases=3 Bus1=153122788.1.2.3 Bus2=60800460.1.2.3 LineCode=1/0_CLP_3PH_12KV_3 Length=0.063053 units=km
New Line.867E$J206-4P phases=3 Bus1=153468325.1.2.3 Bus2=153468377.1.2.3 LineCode=2_JCN_3PH_12KV_3 Length=0.100181 units=km
New Line.2176233E$ND236856322 phases=3 Bus1=49900119.1.2.3 Bus2=236856322.1.2.3 LineCode=2_AL_3PH_12KV_3 Length=0.018949 units=km
New Line.ND236856322$P5714771-1 phases=3 Bus1=236856322.1.2.3 Bus2=236856278.1.2.3 LineCode=1/0_JCN_3PH_12KV_3 Length=0.015693 units=km
New Line.ND236856322$P5171209-1 phases=3 Bus1=236856322.1.2.3 Bus2=49899366.1.2.3 LineCode=2_AL_3PH_12KV_3 Length=0.121671 units=km
New Line.J206-3P$190611527 phases=2 Bus1=153468369.1.2 Bus2=190611529.1.2 LineCode=2_JCN_2PH_12KV_2 Length=0.115559 units=km
New Line.J206-2P$153468589 phases=3 Bus1=153468385.1.2.3 Bus2=153468591.1.2.3 LineCode=2_JCN_3PH_12KV_3 Length=0.009632 units=km
New Line.PH340$P5345349-1 phases=3 Bus1=60799524.1.2.3 Bus2=60799537.1.2.3 LineCode=1/0_JCN_3PH_12KV_3 Length=0.006321 units=km
New Line.4070707E$P5384816-1 phases=3 Bus1=60803018.1.2.3 Bus2=60799479.1.2.3 LineCode=2_CLP_3PH_12KV_3 Length=0.046652 units=km
New Line.P5617204-1$190611527 phases=2 Bus1=190611530.1.2 Bus2=153468493.1.2 LineCode=2_JCN_2PH_12KV_2 Length=0.016862 units=km
New Line.FD30098$ND49930380 phases=1 Bus1=49900224.1 Bus2=49930380.1 LineCode=2_CLP_1PH_12KV_1 Length=0.100377 units=km
New Line.P5617205-1$153468589 phases=3 Bus1=153468592.1.2.3 Bus2=153468554.1.2.3 LineCode=2_JCN_3PH_12KV_3 Length=0.003552 units=km
New Line.GS6457-3$081E phases=3 Bus1=226019363.1.2.3 Bus2=226019260.1.2.3 LineCode=1000_JCN_3PH_12KV_3 Length=0.090162 units=km
New Line.B5174152-1$ND49930380 phases=1 Bus1=49930380.1 Bus2=49900021.1 LineCode=2_CLP_1PH_12KV_1 Length=0.259926 units=km
New Line.PS2703$319E phases=3 Bus1=148218451.1.2.3 Bus2=236902180.1.2.3 LineCode=653_ACSR_3PH_653_ACSR_N_12KV_3 Length=0.001978 units=km
New Line.ND60814256$PS2703 phases=3 Bus1=236902179.1.2.3 Bus2=60814256.1.2.3 LineCode=653_ACSR_3PH_653_ACSR_N_12KV_3 Length=0.002736 units=km
New Line.ND60814256$PS0343 phases=4 Bus1=60814256.0.1.2.3 Bus2=60812481.0.1.2.3 LineCode=653_ACSR_3PH_653_ACSR_N_12KV_4 Length=0.02579 units=km
New Line.PS0380$ND60814256 phases=4 Bus1=60814256.0.1.2.3 Bus2=60812522.0.1.2.3 LineCode=336_ACSR_3PH_336_ACSR_N_12KV_4 Length=0.060622 units=km
New Line.PS0380$ND143621917 phases=4 Bus1=60812523.0.1.2.3 Bus2=143621917.0.1.2.3 LineCode=653_ACSR_3PH_653_ACSR_N_12KV_4 Length=0.028713 units=km
New Line.BF30744$ND143621917 phases=2 Bus1=143621917.1.3 Bus2=178493429.1.3 LineCode=1/0_ACSR_2PH_12KV_2 Length=0.058276 units=km
New Line.ND143621917$ND60813925 phases=4 Bus1=143621917.0.1.2.3 Bus2=60813925.0.1.2.3 LineCode=653_ACSR_3PH_653_ACSR_N_12KV_4 Length=0.052115 units=km
New Line.ND60813925$BF30745 phases=2 Bus1=60813925.1.3 Bus2=178493393.1.3 LineCode=1/0_ACSR_2PH_12KV_2 Length=0.116844 units=km
New Line.ND60813925$ND60813926 phases=4 Bus1=60813925.0.1.2.3 Bus2=60813926.0.1.2.3 LineCode=653_ACSR_3PH_653_ACSR_N_12KV_4 Length=0.026181 units=km
New Line.BF30746$ND60813926 phases=2 Bus1=60813926.1.3 Bus2=178493363.1.3 LineCode=1/0_ACSR_2PH_12KV_2 Length=0.053947 units=km
New Line.261153S$BF30744 phases=2 Bus1=178493430.1.3 Bus2=60801336.1.3 LineCode=1/0_ACSR_2PH_12KV_2 Length=0.030289 units=km
New Line.ND60813926$ND60814273 phases=4 Bus1=60813926.0.1.2.3 Bus2=60814273.0.1.2.3 LineCode=653_ACSR_3PH_653_ACSR_N_12KV_4 Length=0.082331 units=km
New Line.BF30745$628943H phases=2 Bus1=178493394.1.3 Bus2=240238648.1.3 LineCode=1/0_ACSR_2PH_12KV_2 Length=0.043913 units=km
New Line.1480545E$1480546E phases=4 Bus1=60800291.0.1.2.3 Bus2=60812052.0.1.2.3 LineCode=336_ACSR_3PH_336_ACSR_N_12KV_4 Length=0.027727 units=km
New Line.ND237277786$BF31701 phases=2 Bus1=237277786.2.3 Bus2=237277798.2.3 LineCode=1/0_ACSR_2PH_12KV_2 Length=0.003009 units=km
New Line.BF04349$1595485E phases=3 Bus1=246571569.0.1.2 Bus2=59655784.0.1.2 LineCode=6_CU_2PH_6_CU_N_12KV_3_N Length=0.013711 units=km
New Line.1480546E$1480547E phases=4 Bus1=60812052.0.1.2.3 Bus2=60800266.0.1.2.3 LineCode=336_ACSR_3PH_336_ACSR_N_12KV_4 Length=0.077978 units=km
New Line.ND237277786$2254499E phases=4 Bus1=237277786.0.1.2.3 Bus2=60800379.0.1.2.3 LineCode=336_ACSR_3PH_336_ACSR_N_12KV_4 Length=0.023504 units=km
New Line.4778208E$777485H phases=3 Bus1=139364151.1.2.3 Bus2=60802667.1.2.3 LineCode=4_ACSR_3PH_12KV_3 Length=0.050221 units=km
New Line.ND60814273$1858923E phases=4 Bus1=60814273.0.1.2.3 Bus2=60799228.0.1.2.3 LineCode=653_ACSR_3PH_653_ACSR_N_12KV_4 Length=0.100533 units=km
New Line.ND60814273$BF30332 phases=2 Bus1=60814273.1.2 Bus2=60812551.1.2 LineCode=6_CU_2PH_12KV_2 Length=0.004743 units=km
New Line.261153S$ND60814313 phases=2 Bus1=60801336.1.3 Bus2=60814313.1.3 LineCode=1/0_ACSR_2PH_12KV_2 Length=0.036559 units=km
New Line.ND60814313$4844333E phases=2 Bus1=60814313.1.3 Bus2=60799151.1.3 LineCode=1/0_ACSR_2PH_12KV_2 Length=0.100918 units=km
New Line.628943H$4847661E phases=2 Bus1=240238648.1.3 Bus2=60800799.1.3 LineCode=1/0_ACSR_2PH_12KV_2 Length=0.053412 units=km
New Line.BF30746$4868944E phases=2 Bus1=178493362.1.3 Bus2=60801311.1.3 LineCode=1/0_ACSR_2PH_12KV_2 Length=0.022365 units=km
New Line.ND60814313$261155S phases=2 Bus1=60814313.1.3 Bus2=60801361.1.3 LineCode=1/0_ACSR_2PH_12KV_2 Length=0.036564 units=km
New Line.PS0909$1858923E phases=4 Bus1=60799228.0.1.2.3 Bus2=60812595.0.1.2.3 LineCode=336_ACSR_3PH_336_ACSR_N_12KV_4 Length=0.097639 units=km
New Line.261156S$261155S phases=2 Bus1=60801361.1.3 Bus2=243421746.1.3 LineCode=1/0_ACSR_2PH_12KV_2 Length=0.148988 units=km
New Line.4868944E$261150S phases=2 Bus1=60801311.1.3 Bus2=60801236.1.3 LineCode=1/0_ACSR_2PH_12KV_2 Length=0.040913 units=km
New Line.BF30332$ND60813941 phases=2 Bus1=60812552.1.2 Bus2=60813941.1.2 LineCode=6_CU_2PH_12KV_2 Length=0.007449 units=km
New Line.1595485E$4930945E phases=2 Bus1=59655784.1.2 Bus2=59654809.1.2 LineCode=6_CU_2PH_12KV_2 Length=0.12863 units=km
New Line.1480547E$1480548E phases=4 Bus1=60800266.0.1.2.3 Bus2=60800216.0.1.2.3 LineCode=336_ACSR_3PH_336_ACSR_N_12KV_4 Length=0.023573 units=km
New Line.777485H$4794567E phases=3 Bus1=60802667.1.2.3 Bus2=60802779.1.2.3 LineCode=4_ACSR_3PH_12KV_3 Length=0.050088 units=km
New Line.2254499E$ND60814506 phases=4 Bus1=60800379.0.1.2.3 Bus2=60814506.0.1.2.3 LineCode=336_ACSR_3PH_336_ACSR_N_12KV_4 Length=0.076406 units=km
New Line.4930945E$4930903E phases=2 Bus1=59654809.1.2 Bus2=246571615.1.2 LineCode=6_CU_2PH_12KV_2 Length=0.111221 units=km
New Line.ND243421774$261156S phases=2 Bus1=243421746.1.3 Bus2=243421774.1.3 LineCode=1/0_ACSR_2PH_12KV_2 Length=0.015683 units=km
New Line.ND60813941$4759966E phases=2 Bus1=60813941.1.2 Bus2=252409778.1.2 LineCode=6_CU_2PH_12KV_2 Length=0.023178 units=km
New Line.PS0909$658938H phases=4 Bus1=60812596.0.1.2.3 Bus2=60799257.0.1.2.3 LineCode=336_ACSR_3PH_336_ACSR_N_12KV_4 Length=0.117181 units=km
New Line.ND60813941$261143S phases=2 Bus1=60813941.1.2 Bus2=60801286.1.2 LineCode=6_CU_2PH_12KV_2 Length=0.057808 units=km
New Line.261143S$261144S phases=2 Bus1=60801286.1.2 Bus2=257408762.1.2 LineCode=6_CU_2PH_12KV_2 Length=0.106575 units=km
New Line.651866H$ND243421774 phases=2 Bus1=243421774.1.3 Bus2=60799201.1.3 LineCode=1/0_ACSR_2PH_12KV_2 Length=0.119452 units=km
New Line.658938H$658935H phases=4 Bus1=60799257.0.1.2.3 Bus2=60799415.0.1.2.3 LineCode=336_ACSR_3PH_336_ACSR_N_12KV_4 Length=0.109678 units=km
New Line.4759966E$261644S phases=2 Bus1=252409778.1.2 Bus2=60801386.1.2 LineCode=6_CU_2PH_12KV_2 Length=0.057813 units=km
New Line.4142631E$ND60814506 phases=2 Bus1=60814506.2.3 Bus2=60813531.2.3 LineCode=336_ACSR_2PH_12KV_2 Length=0.041667 units=km
New Line.1480548E$ND60813860 phases=4 Bus1=60800216.0.1.2.3 Bus2=60813860.0.1.2.3 LineCode=336_ACSR_3PH_336_ACSR_N_12KV_4 Length=0.015391 units=km
New Line.ND60814506$ND60814022 phases=4 Bus1=60814506.0.1.2.3 Bus2=60814022.0.1.2.3 LineCode=336_ACSR_3PH_336_ACSR_N_12KV_4 Length=0.059737 units=km
New Line.ND60813860$1745424E phases=3 Bus1=60813860.1.2.3 Bus2=167290012.1.2.3 LineCode=336_ACSR_3PH_12KV_3 Length=0.125027 units=km
New Line.4930904E$4930903E phases=2 Bus1=246571615.1.2 Bus2=59654630.1.2 LineCode=6_CU_2PH_12KV_2 Length=0.073006 units=km
New Line.4856003E$4930462E phases=2 Bus1=59653793.2.3 Bus2=59654784.2.3 LineCode=6_CU_1PH_12KV_2 Length=0.114962 units=km
New Line.ND60813860$550405H phases=4 Bus1=60813860.0.1.2.3 Bus2=60800241.0.1.2.3 LineCode=1/0_ACSR_3PH_1/0_ACSR_N_12KV_4 Length=0.084144 units=km
New Line.ND60814022$4142626E phases=4 Bus1=60814022.0.1.2.3 Bus2=60800433.0.1.2.3 LineCode=336_ACSR_3PH_336_ACSR_N_12KV_4 Length=0.030365 units=km
New Line.ND60814022$FD31036 phases=3 Bus1=60814022.1.2.3 Bus2=60800683.1.2.3 LineCode=336_ACSR_3PH_12KV_3 Length=0.003452 units=km
New Line.1745424E$PS2725 phases=3 Bus1=167290012.1.2.3 Bus2=237286094.1.2.3 LineCode=336_ACSR_3PH_12KV_3 Length=0.08391 units=km
New Line.4930462E$4939673E phases=2 Bus1=59654784.2.3 Bus2=59654655.2.3 LineCode=6_CU_1PH_12KV_2 Length=0.056307 units=km
New Line.4142631E$1595103E phases=2 Bus1=60813532.2.3 Bus2=60800406.2.3 LineCode=336_ACSR_2PH_12KV_2 Length=0.047 units=km
New Line.4142626E$4142627E phases=4 Bus1=60800433.0.1.2.3 Bus2=60811650.0.1.2.3 LineCode=336_ACSR_3PH_336_ACSR_N_12KV_4 Length=0.040128 units=km
New Line.550405H$ND60814004 phases=4 Bus1=60800241.0.1.2.3 Bus2=60814004.0.1.2.3 LineCode=1/0_ACSR_3PH_1/0_ACSR_N_12KV_4 Length=0.040519 units=km
New Line.4142627E$ND222049258 phases=4 Bus1=60811650.0.1.2.3 Bus2=222049258.0.1.2.3 LineCode=336_ACSR_3PH_336_ACSR_N_12KV_4 Length=0.058431 units=km
New Line.4939673E$4930463E phases=2 Bus1=59654655.2.3 Bus2=59654501.2.3 LineCode=6_CU_1PH_12KV_2 Length=0.054796 units=km
New Line.ND60814004$4794351E phases=3 Bus1=60814004.1.2.3 Bus2=60802380.1.2.3 LineCode=1/0_ACSR_3PH_12KV_3 Length=0.040519 units=km
New Line.1595103E$62492S phases=2 Bus1=60800406.2.3 Bus2=60802642.2.3 LineCode=336_ACSR_2PH_12KV_2 Length=0.08983 units=km
New Line.62492S$62481E phases=2 Bus1=60802642.2.3 Bus2=243284418.2.3 LineCode=336_ACSR_2PH_12KV_2 Length=0.061076 units=km
New Line.PS2725$PH338E phases=3 Bus1=237286093.1.2.3 Bus2=60802837.1.2.3 LineCode=4/0_ACSR_3PH_12KV_3 Length=0.006578 units=km
New Line.ND222049258$ND60814080 phases=4 Bus1=222049258.0.1.2.3 Bus2=60814080.0.1.2.3 LineCode=336_ACSR_3PH_336_ACSR_N_12KV_4 Length=0.123159 units=km
New Line.261644S$4794560E phases=2 Bus1=60801386.1.2 Bus2=260666009.1.2 LineCode=6_CU_2PH_12KV_2 Length=0.042752 units=km
New Line.651866H$4386688E phases=2 Bus1=60799201.1.3 Bus2=60799176.1.3 LineCode=1/0_ACSR_2PH_12KV_2 Length=0.073119 units=km
New Line.658935H$658932H phases=4 Bus1=60799415.0.1.2.3 Bus2=60799286.0.1.2.3 LineCode=336_ACSR_3PH_336_ACSR_N_12KV_4 Length=0.109682 units=km
New Line.261144S$4708325E phases=2 Bus1=257408762.1.2 Bus2=60801261.1.2 LineCode=6_CU_2PH_12KV_2 Length=0.032952 units=km
New Line.4794560E$4847660E phases=2 Bus1=260666009.1.2 Bus2=249412765.1.2 LineCode=6_CU_2PH_12KV_2 Length=0.048456 units=km
New Line.ND60814080$60989S phases=4 Bus1=60814080.0.1.2.3 Bus2=60802752.0.1.2.3 LineCode=336_ACSR_3PH_336_ACSR_N_12KV_4 Length=0.066114 units=km
New Line.ND60814080$1595418E phases=2 Bus1=60814080.1.2 Bus2=60811677.1.2 LineCode=336_ACSR_2PH_12KV_2 Length=0.063922 units=km
New Line.545106H$ND60814080 phases=3 Bus1=60814080.1.2.3 Bus2=60813544.1.2.3 LineCode=336_ACSR_3PH_12KV_3 Length=0.002516 units=km
New Line.62481E$ND60815094 phases=2 Bus1=243284418.2.3 Bus2=60815094.2.3 LineCode=336_ACSR_2PH_12KV_2 Length=0.002938 units=km
New Line.ND60815094$62494S phases=2 Bus1=60815094.2.3 Bus2=60802617.2.3 LineCode=4_ACSR_2PH_12KV_2 Length=0.041893 units=km
New Line.60989S$4772187E phases=4 Bus1=60802752.0.1.2.3 Bus2=60802694.0.1.2.3 LineCode=336_ACSR_3PH_336_ACSR_N_12KV_4 Length=0.125709 units=km
New Line.4772187E$ND102792753 phases=4 Bus1=60802694.0.1.2.3 Bus2=102792753.0.1.2.3 LineCode=336_ACSR_3PH_336_ACSR_N_12KV_4 Length=0.056628 units=km
New Line.545106H$1652123E phases=3 Bus1=60813545.1.2.3 Bus2=237650533.1.2.3 LineCode=336_ACSR_3PH_12KV_3 Length=0.06093 units=km
New Line.62494S$62495S phases=2 Bus1=60802617.2.3 Bus2=60802592.2.3 LineCode=4_ACSR_2PH_12KV_2 Length=0.05855 units=km
New Line.ND102792753$4788971E phases=4 Bus1=102792753.0.1.2.3 Bus2=165342169.0.1.2.3 LineCode=336_ACSR_3PH_336_ACSR_N_12KV_4 Length=0.187975 units=km
New Line.1652123E$ND60814335 phases=3 Bus1=237650533.1.2.3 Bus2=60814335.1.2.3 LineCode=336_ACSR_3PH_12KV_3 Length=0.135931 units=km
New Line.4788971E$ND166590765 phases=4 Bus1=165342169.0.1.2.3 Bus2=166590765.0.1.2.3 LineCode=336_ACSR_3PH_336_ACSR_N_12KV_4 Length=0.029431 units=km
New Line.ND60814335$1652124E phases=3 Bus1=60814335.1.2.3 Bus2=237650542.1.2.3 LineCode=336_ACSR_3PH_12KV_3 Length=0.051766 units=km
New Line.ND60814335$4700292E phases=3 Bus1=60814335.1.2.3 Bus2=60800443.1.2.3 LineCode=336_ACSR_3PH_12KV_3 Length=0.05909 units=km
New Line.ND166590765$PS0197 phases=4 Bus1=166590765.0.1.2.3 Bus2=49929512.0.1.2.3 LineCode=336_ACSR_3PH_336_ACSR_N_12KV_4 Length=0.056994 units=km
New Line.1652124E$ND60814661 phases=3 Bus1=237650542.1.2.3 Bus2=60814661.1.2.3 LineCode=336_ACSR_3PH_12KV_3 Length=0.025166 units=km
New Line.ND60814661$4723033E phases=3 Bus1=60814661.1.2.3 Bus2=60802804.1.2.3 LineCode=336_ACSR_3PH_12KV_3 Length=0.056363 units=km
New Line.ND60814661$ND60814903 phases=3 Bus1=60814661.1.2.3 Bus2=60814903.1.2.3 LineCode=336_ACSR_3PH_12KV_3 Length=0.063023 units=km
New Line.ND60814903$ND237650393 phases=2 Bus1=60814903.1.3 Bus2=237650393.1.3 LineCode=1/0_ACSR_2PH_12KV_2 Length=0.201759 units=km
New Line.BF31700$ND60814903 phases=2 Bus1=60814903.1.3 Bus2=237650481.1.3 LineCode=1/0_ACSR_2PH_12KV_2 Length=0.006158 units=km
New Line.ND49969523$PS0197 phases=4 Bus1=60813688.0.1.2.3 Bus2=49969523.0.1.2.3 LineCode=336_ACSR_3PH_336_ACSR_N_12KV_4 Length=0.02355 units=km
New Line.4723033E$1630049E phases=3 Bus1=60802804.1.2.3 Bus2=60800347.1.2.3 LineCode=336_ACSR_3PH_12KV_3 Length=0.054445 units=km
New Line.ND153468346$ND49969523 phases=4 Bus1=49969523.0.1.2.3 Bus2=153468346.0.1.2.3 LineCode=336_ACSR_3PH_336_ACSR_N_12KV_4 Length=0.042028 units=km
New Line.ND237650393$BF31698 phases=2 Bus1=237650393.1.3 Bus2=237650413.1.3 LineCode=1/0_ACSR_2PH_12KV_2 Length=0.012876 units=km
New Line.ND49969523$4554136E phases=4 Bus1=49969523.0.1.2.3 Bus2=49899352.0.1.2.3 LineCode=336_ACSR_3PH_336_ACSR_N_12KV_4 Length=0.056779 units=km
New Line.ND237650393$ND59670224 phases=2 Bus1=237650393.1.3 Bus2=59670224.1.3 LineCode=1/0_ACSR_2PH_12KV_2 Length=0.084858 units=km
New Line.ND59670224$BF31699 phases=2 Bus1=59670224.1.3 Bus2=237650347.1.3 LineCode=1/0_ACSR_2PH_12KV_2 Length=0.00554 units=km
New Line.262162S$BF31700 phases=2 Bus1=237650482.1.3 Bus2=237698298.1.3 LineCode=1/0_ACSR_2PH_12KV_2 Length=0.020355 units=km
New Line.1595336E$ND153468346 phases=4 Bus1=153468346.0.1.2.3 Bus2=49900150.0.1.2.3 LineCode=336_ACSR_3PH_336_ACSR_N_12KV_4 Length=0.035706 units=km
New Line.4554136E$ND49930344 phases=4 Bus1=49899352.0.1.2.3 Bus2=49930344.0.1.2.3 LineCode=336_ACSR_3PH_336_ACSR_N_12KV_4 Length=0.052868 units=km
New Line.ND59669541$ND59670224 phases=2 Bus1=59670224.1.3 Bus2=59669541.1.3 LineCode=1/0_ACSR_2PH_12KV_2 Length=0.111154 units=km
New Line.ND59669541$BF30702 phases=2 Bus1=59669541.1.3 Bus2=153584442.1.3 LineCode=1/0_ACSR_2PH_12KV_2 Length=0.008168 units=km
New Line.ND237650403$BF31698 phases=2 Bus1=237650414.1.3 Bus2=237650403.1.3 LineCode=1/0_ACSR_2PH_12KV_2 Length=0.017248 units=km
New Line.262164S$262162S phases=2 Bus1=237698298.1.3 Bus2=237698277.1.3 LineCode=1/0_ACSR_2PH_12KV_2 Length=0.08031 units=km
New Line.ND246768107$ND59669541 phases=2 Bus1=59669541.1.3 Bus2=246768107.1.3 LineCode=1/0_ACSR_2PH_12KV_2 Length=0.074395 units=km
New Line.ND49930344$4308860E phases=4 Bus1=49930344.0.1.2.3 Bus2=49899323.0.1.2.3 LineCode=336_ACSR_3PH_336_ACSR_N_12KV_4 Length=0.219422 units=km
New Line.ND49930344$FD31618 phases=3 Bus1=49930344.0.2.3 Bus2=49900160.0.2.3 LineCode=2_ACSR_1PH_2_ACSR_N_12KV_3_N Length=0.053908 units=km
New Line.ND49930133$1595336E phases=4 Bus1=49900150.0.1.2.3 Bus2=49930133.0.1.2.3 LineCode=336_ACSR_3PH_336_ACSR_N_12KV_4 Length=0.096644 units=km
New Line.ND49930133$ND164628544 phases=4 Bus1=49930133.0.1.2.3 Bus2=164628544.0.1.2.3 LineCode=336_ACSR_3PH_336_ACSR_N_12KV_4 Length=0.051033 units=km
New Line.BF31576$ND246768107 phases=2 Bus1=246768107.1.3 Bus2=222798848.1.3 LineCode=1/0_ACSR_2PH_12KV_2 Length=0.001918 units=km
New Line.ND237650403$4102279E phases=2 Bus1=237650403.1.3 Bus2=237698064.1.3 LineCode=1/0_ACSR_2PH_12KV_2 Length=0.083421 units=km
New Line.4817002E$ND237650403 phases=2 Bus1=237650403.1.3 Bus2=237698169.1.3 LineCode=1/0_ACSR_2PH_12KV_2 Length=0.028241 units=km
New Line.262167S$262164S phases=2 Bus1=237698277.1.3 Bus2=237698239.1.3 LineCode=1/0_ACSR_2PH_12KV_2 Length=0.12292 units=km
New Line.4308860E$ND240190563 phases=4 Bus1=49899323.0.1.2.3 Bus2=240190591.0.1.2.3 LineCode=4_CU_3PH_4_CU_N_12KV_4 Length=0.163698 units=km
New Line.ND49930133$62366S phases=4 Bus1=49930133.0.1.2.3 Bus2=49900108.0.1.2.3 LineCode=336_ACSR_3PH_336_ACSR_N_12KV_4 Length=0.101283 units=km
New Line.ND49930133$2176233E phases=3 Bus1=49930133.1.2.3 Bus2=49900118.1.2.3 LineCode=4_ACSR_3PH_12KV_3 Length=0.025477 units=km
New Line.BF31699$4751063E phases=2 Bus1=237650346.1.3 Bus2=59655559.1.3 LineCode=1/0_ACSR_2PH_12KV_2 Length=0.011703 units=km
New Line.262187S$4817002E phases=2 Bus1=237698169.1.3 Bus2=237698131.1.3 LineCode=1/0_ACSR_2PH_12KV_2 Length=0.109821 units=km
New Line.ND237698206$262167S phases=2 Bus1=237698239.1.3 Bus2=237698206.1.3 LineCode=1/0_ACSR_2PH_12KV_2 Length=0.043963 units=km
New Line.ND164628544$ND246716518 phases=2 Bus1=164628544.1.2 Bus2=246716518.1.2 LineCode=6_CU_2PH_12KV_2 Length=0.042977 units=km
New Line.ND164628544$262125S phases=4 Bus1=164628544.0.1.2.3 Bus2=49926510.0.1.2.3 LineCode=336_ACSR_3PH_336_ACSR_N_12KV_4 Length=0.185128 units=km
New Line.62366S$PS0390 phases=4 Bus1=49900108.0.1.2.3 Bus2=50117705.0.1.2.3 LineCode=336_ACSR_3PH_336_ACSR_N_12KV_4 Length=0.12575 units=km
New Line.BF30702$262528S phases=2 Bus1=153584441.1.3 Bus2=59655434.1.3 LineCode=1/0_ACSR_2PH_12KV_2 Length=0.007692 units=km
New Line.4751063E$262513S phases=2 Bus1=59655559.1.3 Bus2=59655534.1.3 LineCode=1/0_ACSR_2PH_12KV_2 Length=0.091259 units=km
New Line.ND246716518$4939745E phases=2 Bus1=246716518.1.2 Bus2=236823967.1.2 LineCode=6_CU_2PH_12KV_2 Length=0.012229 units=km
New Line.262513S$4967283E phases=2 Bus1=59655534.1.3 Bus2=237232971.1.3 LineCode=1/0_ACSR_2PH_12KV_2 Length=0.055329 units=km
New Line.4678250E$ND237698206 phases=2 Bus1=237698206.1.3 Bus2=237698015.1.3 LineCode=1/0_ACSR_2PH_12KV_2 Length=0.078777 units=km
New Line.262189S$262187S phases=2 Bus1=237698131.1.3 Bus2=237698071.1.3 LineCode=1/0_ACSR_2PH_12KV_2 Length=0.120865 units=km
New Line.ND49971785$262125S phases=4 Bus1=49926510.0.1.2.3 Bus2=49971785.0.1.2.3 LineCode=336_ACSR_3PH_336_ACSR_N_12KV_4 Length=0.042099 units=km
New Line.658932H$ND60814923 phases=4 Bus1=60799286.0.1.2.3 Bus2=60814923.0.1.2.3 LineCode=336_ACSR_3PH_336_ACSR_N_12KV_4 Length=0.075587 units=km
New Line.ND60814923$BF30331 phases=2 Bus1=60814923.1.2 Bus2=60812671.1.2 LineCode=1/0_ACSR_2PH_12KV_2 Length=0.020719 units=km
New Line.ND60814923$ND60814345 phases=4 Bus1=60814923.0.1.2.3 Bus2=60814345.0.1.2.3 LineCode=336_ACSR_3PH_336_ACSR_N_12KV_4 Length=0.033332 units=km
New Line.ND60814345$BF30330 phases=3 Bus1=60814345.1.2.3 Bus2=60812624.1.2.3 LineCode=1/0_ACSR_3PH_12KV_3 Length=0.05672 units=km
New Line.ND60814345$PS0357 phases=4 Bus1=60814345.0.1.2.3 Bus2=60812648.0.1.2.3 LineCode=336_ACSR_3PH_336_ACSR_N_12KV_4 Length=0.05672 units=km
New Line.PS0384$ND60814345 phases=4 Bus1=60814345.0.1.2.3 Bus2=60812840.0.1.2.3 LineCode=336_ACSR_3PH_336_ACSR_N_12KV_4 Length=0.044841 units=km
New Line.BF30331$4930743E phases=2 Bus1=60812672.1.2 Bus2=60799467.1.2 LineCode=1/0_ACSR_2PH_12KV_2 Length=0.060249 units=km
New Line.ND152202719$BF30330 phases=2 Bus1=60812625.2.3 Bus2=152202719.2.3 LineCode=1/0_ACSR_2PH_12KV_2 Length=0.045213 units=km
New Line.4930743E$4469381E phases=2 Bus1=60799467.1.2 Bus2=60800849.1.2 LineCode=1/0_ACSR_2PH_12KV_2 Length=0.024295 units=km
New Line.PS0384$ND60814565 phases=4 Bus1=60812839.0.1.2.3 Bus2=60814565.0.1.2.3 LineCode=336_ACSR_3PH_336_ACSR_N_12KV_4 Length=0.102787 units=km
New Line.ND152202719$ND147895515 phases=2 Bus1=152202719.2.3 Bus2=147895515.2.3 LineCode=1/0_ACSR_2PH_12KV_2 Length=0.054399 units=km
New Line.261437S$ND152202719 phases=2 Bus1=152202719.2.3 Bus2=242821085.2.3 LineCode=1/0_ACSR_2PH_12KV_2 Length=0.060927 units=km
New Line.4469381E$4930400E phases=2 Bus1=60800849.1.2 Bus2=309769544.1.2 LineCode=1/0_ACSR_2PH_12KV_2 Length=0.120899 units=km