! OpenDSS script generated from multiconductor network
Clear

New Circuit.mc_network basekv=12.0 pu=1.000000 angle=0.00 frequency=60.0 phases=3 Mvasc3=143993 Mvasc1=47997.6
~ bus1=-88888818873565.1.2.3

! Line codes
New LineCode.UNK_UNK_1PH_12KV_1 nphases=1 units=km Rmatrix=[ 0.001227 ] Xmatrix=[ 0.000259 ] Cmatrix=[ 0 ]
New LineCode.UNK_UNK_3PH_12KV_3 nphases=3 units=km Rmatrix=[ 0.005048 | 0 0.005048 | 0 0 0.005048 ] Xmatrix=[ 0.001064 | 0 0.001064 | 0 0 0.001064 ] Cmatrix=[ 0 | 0 0 | 0 0 0 ]
New LineCode.1000_JCN_3PH_12KV_3 nphases=3 units=km Rmatrix=[ 0.020525 | 0 0.020525 | 0 0 0.020525 ] Xmatrix=[ 0.031068 | 0 0.031068 | 0 0 0.031068 ] Cmatrix=[ 0 | 0 0 | 0 0 0 ]
New LineCode.1/0_JCN_3PH_12KV_3 nphases=3 units=km Rmatrix=[ 0.102449 | 0 0.102449 | 0 0 0.102449 ] Xmatrix=[ 0.031313 | 0 0.031313 | 0 0 0.031313 ] Cmatrix=[ 0 | 0 0 | 0 0 0 ]
New LineCode.2_CLP_1PH_12KV_1 nphases=1 units=km Rmatrix=[ 0.001495 ] Xmatrix=[ 0.000315 ] Cmatrix=[ 0 ]
New LineCode.1000_CLP_3PH_12KV_3 nphases=3 units=km Rmatrix=[ 0.006318 | 0 0.006318 | 0 0 0.006318 ] Xmatrix=[ 0.009563 | 0 0.009563 | 0 0 0.009563 ] Cmatrix=[ 0 | 0 0 | 0 0 0 ]
New LineCode.653_ACSR_3PH_12KV_3 nphases=3 units=km Rmatrix=[ 0.022573 | 0 0.022573 | 0 0 0.022573 ] Xmatrix=[ 0.08763 | 0 0.08763 | 0 0 0.08763 ] Cmatrix=[ 0 | 0 0 | 0 0 0 ]
New LineCode.653_ACSR_3PH_653_ACSR_N_12KV_4 nphases=4 units=km Rmatrix=[ 0.004927 | 0 0.004927 | 0 0 0.004927 | 0 0 0 0.004927 ] Xmatrix=[ 0.01675 | 0 0.01675 | 0 0 0.01675 | 0 0 0 0.01675 ] Cmatrix=[ 0 | 0 0 | 0 0 0 | 0 0 0 0 ]
New LineCode.4_ACSR_3PH_4_ACSR_N_12KV_4 nphases=4 units=km Rmatrix=[ 0.006828 | 0 0.006828 | 0 0 0.006828 | 0 0 0 0.006828 ] Xmatrix=[ 0.002297 | 0 0.002297 | 0 0 0.002297 | 0 0 0 0.002297 ] Cmatrix=[ 0 | 0 0 | 0 0 0 | 0 0 0 0 ]
New LineCode.1/0_JCN_1PH_12KV_1 nphases=1 units=km Rmatrix=[ 0.007267 ] Xmatrix=[ 0.002221 ] Cmatrix=[ 0 ]
New LineCode.1/0_CLP_3PH_12KV_3 nphases=3 units=km Rmatrix=[ 0.016772 | 0 0.016772 | 0 0 0.016772 ] Xmatrix=[ 0.005126 | 0 0.005126 | 0 0 0.005126 ] Cmatrix=[ 0 | 0 0 | 0 0 0 ]
New LineCode.750_JCN_3PH_12KV_3 nphases=3 units=km Rmatrix=[ 0.012163 | 0 0.012163 | 0 0 0.012163 ] Xmatrix=[ 0.014937 | 0 0.014937 | 0 0 0.014937 ] Cmatrix=[ 0 | 0 0 | 0 0 0 ]
New LineCode.350_JCN_3PH_12KV_3 nphases=3 units=km Rmatrix=[ 0.015512 | 0 0.015512 | 0 0 0.015512 ] Xmatrix=[ 0.011786 | 0 0.011786 | 0 0 0.011786 ] Cmatrix=[ 0 | 0 0 | 0 0 0 ]
New LineCode.2_CLP_3PH_12KV_3 nphases=3 units=km Rmatrix=[ 0.289617 | 0 0.289617 | 0 0 0.289617 ] Xmatrix=[ 0.061046 | 0 0.061046 | 0 0 0.061046 ] Cmatrix=[ 0 | 0 0 | 0 0 0 ]
New LineCode.2_CLP_2PH_12KV_2 nphases=2 units=km Rmatrix=[ 0.137597 | 0 0.137597 ] Xmatrix=[ 0.029003 | 0 0.029003 ] Cmatrix=[ 0 | 0 0 ]
New LineCode.750_CLP_3PH_12KV_3 nphases=3 units=km Rmatrix=[ 0.028593 | 0 0.028593 | 0 0 0.028593 ] Xmatrix=[ 0.035116 | 0 0.035116 | 0 0 0.035116 ] Cmatrix=[ 0 | 0 0 | 0 0 0 ]
New LineCode.2_JCN_1PH_12KV_1 nphases=1 units=km Rmatrix=[ 0.002948 ] Xmatrix=[ 0.000621 ] Cmatrix=[ 0 ]
New LineCode.1000_CLP_1PH_12KV_1 nphases=1 units=km Rmatrix=[ 0.000149 ] Xmatrix=[ 0.000226 ] Cmatrix=[ 0 ]
New LineCode.2_JCN_3PH_12KV_3 nphases=3 units=km Rmatrix=[ 0.000643 | 0 0.000643 | 0 0 0.000643 ] Xmatrix=[ 0.000135 | 0 0.000135 | 0 0 0.000135 ] Cmatrix=[ 0 | 0 0 | 0 0 0 ]
New LineCode.2_JCN_2PH_12KV_2 nphases=2 units=km Rmatrix=[ 0.003102 | 0 0.003102 ] Xmatrix=[ 0.000654 | 0 0.000654 ] Cmatrix=[ 0 | 0 0 ]
New LineCode.350_CLP_3PH_12KV_3 nphases=3 units=km Rmatrix=[ 0.108713 | 0 0.108713 | 0 0 0.108713 ] Xmatrix=[ 0.082599 | 0 0.082599 | 0 0 0.082599 ] Cmatrix=[ 0 | 0 0 | 0 0 0 ]
New LineCode.1/0_ACSR_3PH_12KV_3 nphases=3 units=km Rmatrix=[ 0.009474 | 0 0.009474 | 0 0 0.009474 ] Xmatrix=[ 0.007543 | 0 0.007543 | 0 0 0.007543 ] Cmatrix=[ 0 | 0 0 | 0 0 0 ]
New LineCode.4_ACSR_3PH_12KV_3 nphases=3 units=km Rmatrix=[ 0.003033 | 0 0.003033 | 0 0 0.003033 ] Xmatrix=[ 0.001113 | 0 0.001113 | 0 0 0.001113 ] Cmatrix=[ 0 | 0 0 | 0 0 0 ]
New LineCode.6_CU_3PH_12KV_3 nphases=3 units=km Rmatrix=[ 0.088108 | 0 0.088108 | 0 0 0.088108 ] Xmatrix=[ 0.03123 | 0 0.03123 | 0 0 0.03123 ] Cmatrix=[ 0 | 0 0 | 0 0 0 ]
New LineCode.336_ACSR_3PH_12KV_3 nphases=3 units=km Rmatrix=[ 0.006245 | 0 0.006245 | 0 0 0.006245 ] Xmatrix=[ 0.013986 | 0 0.013986 | 0 0 0.013986 ] Cmatrix=[ 0 | 0 0 | 0 0 0 ]
New LineCode.4_ACSR_2PH_12KV_2 nphases=2 units=km Rmatrix=[ 0.128011 | 0 0.128011 ] Xmatrix=[ 0.046973 | 0 0.046973 ] Cmatrix=[ 0 | 0 0 ]

! Lines
New Line.144244780$P5606545-2 phases=1 Bus1=144244783.3 Bus2=144244715.3 LineCode=UNK_UNK_1PH_12KV_1 Length=1e-05 units=km
New Line.P5606545-1$144244790 phases=1 Bus1=144244706.3 Bus2=144244793.3 LineCode=UNK_UNK_1PH_12KV_1 Length=1e-05 units=km
New Line.ND144244948$144244790 phases=1 Bus1=144244792.3 Bus2=144244948.3 LineCode=UNK_UNK_1PH_12KV_1 Length=1e-05 units=km
New Line.ND144244948$144245326 phases=1 Bus1=144244948.3 Bus2=144245328.3 LineCode=UNK_UNK_1PH_12KV_1 Length=1e-05 units=km
New Line.144244768$P5606547-2 phases=1 Bus1=144244771.3 Bus2=144244646.3 LineCode=UNK_UNK_1PH_12KV_1 Length=1e-05 units=km
New Line.P5605479-1$144704279 phases=1 Bus1=144704282.1 Bus2=144704177.1 LineCode=UNK_UNK_1PH_12KV_1 Length=1e-05 units=km
New Line.144704359$P5605477-1 phases=1 Bus1=144704362.2 Bus2=144704297.2 LineCode=UNK_UNK_1PH_12KV_1 Length=1e-05 units=km
New Line.144245338$P5606548-2 phases=1 Bus1=144245273.3 Bus2=144245341.3 LineCode=UNK_UNK_1PH_12KV_1 Length=1e-05 units=km
New Line.150266619$P5614785-1 phases=1 Bus1=150266622.3 Bus2=150266557.3 LineCode=UNK_UNK_1PH_12KV_1 Length=1e-05 units=km
New Line.150266731$P5614786-2 phases=1 Bus1=150266734.3 Bus2=150266678.3 LineCode=UNK_UNK_1PH_12KV_1 Length=1e-05 units=km
New Line.106070214$P5607659-2 phases=1 Bus1=106326150.3 Bus2=106070217.3 LineCode=UNK_UNK_1PH_12KV_1 Length=1e-05 units=km
New Line.P5605478-2$149696868 phases=1 Bus1=144703943.2 Bus2=149696871.2 LineCode=UNK_UNK_1PH_12KV_1 Length=1e-05 units=km
New Line.144244927$ND143967674 phases=1 Bus1=143967674.3 Bus2=144244929.3 LineCode=UNK_UNK_1PH_12KV_1 Length=1e-05 units=km
New Line.106070214$106070163 phases=1 Bus1=106070216.3 Bus2=106070165.3 LineCode=UNK_UNK_1PH_12KV_1 Length=1e-05 units=km
New Line.144244927$P5606550-2 phases=1 Bus1=144244930.3 Bus2=144244874.3 LineCode=UNK_UNK_1PH_12KV_1 Length=1e-05 units=km
New Line.144245046$P5606551-2 phases=1 Bus1=144245049.3 Bus2=144244993.3 LineCode=UNK_UNK_1PH_12KV_1 Length=1e-05 units=km
New Line.ND144705012$144704253 phases=1 Bus1=144705012.1 Bus2=144704255.1 LineCode=UNK_UNK_1PH_12KV_1 Length=1e-05 units=km
New Line.144245184$P5606555-2 phases=1 Bus1=144245187.2 Bus2=144245131.2 LineCode=UNK_UNK_1PH_12KV_1 Length=1e-05 units=km
New Line.106070163$P5607660-1 phases=1 Bus1=106070166.3 Bus2=145064772.3 LineCode=UNK_UNK_1PH_12KV_1 Length=1e-05 units=km
New Line.149964802$P5614775-1 phases=1 Bus1=149964805.2 Bus2=149964728.2 LineCode=UNK_UNK_1PH_12KV_1 Length=1e-05 units=km
New Line.P5605481-2$144704253 phases=1 Bus1=144704256.1 Bus2=144704118.1 LineCode=UNK_UNK_1PH_12KV_1 Length=1e-05 units=km
New Line.106070173$P5607660-2 phases=1 Bus1=145064781.3 Bus2=106070176.3 LineCode=UNK_UNK_1PH_12KV_1 Length=1e-05 units=km
New Line.106070173$106070183 phases=1 Bus1=106070175.3 Bus2=106070185.3 LineCode=UNK_UNK_1PH_12KV_1 Length=1e-05 units=km
New Line.106070183$P5607661-1 phases=1 Bus1=106070186.3 Bus2=106326003.3 LineCode=UNK_UNK_1PH_12KV_1 Length=1e-05 units=km
New Line.150266274$P5614790-1 phases=1 Bus1=150266277.1 Bus2=150266212.1 LineCode=UNK_UNK_1PH_12KV_1 Length=1e-05 units=km
New Line.150266415$P5605484-1 phases=1 Bus1=150266418.1 Bus2=150266353.1 LineCode=UNK_UNK_1PH_12KV_1 Length=1e-05 units=km
New Line.150266286$P5614790-2 phases=1 Bus1=150266221.1 Bus2=150266289.1 LineCode=UNK_UNK_1PH_12KV_1 Length=1e-05 units=km
New Line.146374339$P5595414-1 phases=3 Bus1=146374342.1.2.3 Bus2=146374283.1.2.3 LineCode=UNK_UNK_3PH_12KV_3 Length=1e-05 units=km
New Line.P5614792-2$244321487 phases=1 Bus1=244321490.1 Bus2=150266460.1 LineCode=UNK_UNK_1PH_12KV_1 Length=1e-05 units=km
New Line.ND191167177$GS7259-2 phases=3 Bus1=191167177.1.2.3 Bus2=176653022.1.2.3 LineCode=1000_JCN_3PH_12KV_3 Length=0.01779 units=km
New Line.ND191167177$GS7579-1 phases=3 Bus1=191167177.1.2.3 Bus2=183056939.1.2.3 LineCode=1000_JCN_3PH_12KV_3 Length=0.122437 units=km
New Line.GS7579-3$GS7273-3 phases=3 Bus1=183056947.1.2.3 Bus2=176983161.1.2.3 LineCode=1000_JCN_3PH_12KV_3 Length=0.218627 units=km
New Line.GS7579-4$ND244964397 phases=3 Bus1=183056955.1.2.3 Bus2=244964397.1.2.3 LineCode=1000_JCN_3PH_12KV_3 Length=1.126 units=km
New Line.GS6345-2$ND244964397 phases=3 Bus1=244964397.1.2.3 Bus2=106182357.1.2.3 LineCode=1000_JCN_3PH_12KV_3 Length=1.22902 units=km
New Line.GS6345-1$ND144318148 phases=3 Bus1=106182365.1.2.3 Bus2=144318148.1.2.3 LineCode=1000_JCN_3PH_12KV_3 Length=0.105035 units=km
New Line.GS6345-3$ND166929360 phases=3 Bus1=106182373.1.2.3 Bus2=166929367.1.2.3 LineCode=1/0_JCN_3PH_12KV_3 Length=0.06964 units=km
New Line.540E$ND144318148 phases=3 Bus1=144318148.1.2.3 Bus2=106182315.1.2.3 LineCode=1000_JCN_3PH_12KV_3 Length=0.043602 units=km
New Line.J911-2P$ND144318148 phases=1 Bus1=144318148.1 Bus2=106182629.1 LineCode=2_CLP_1PH_12KV_1 Length=0.088442 units=km
New Line.ND144318185$GS6345-4 phases=3 Bus1=106182381.1.2.3 Bus2=144318185.1.2.3 LineCode=1000_CLP_3PH_12KV_3 Length=0.094477 units=km
New Line.ND144318185$GS6334-1 phases=3 Bus1=144318185.1.2.3 Bus2=106182502.1.2.3 LineCode=1000_CLP_3PH_12KV_3 Length=0.074534 units=km
New Line.ND144318185$J088A-3P phases=1 Bus1=144318185.1 Bus2=240308632.1 LineCode=2_CLP_1PH_12KV_1 Length=0.012968 units=km
New Line.ND191432598$540E phases=3 Bus1=106182314.1.2.3 Bus2=191432598.1.2.3 LineCode=653_ACSR_3PH_12KV_3 Length=0.222068 units=km
New Line.ND105925011$ND191432598 phases=3 Bus1=191432598.1.2.3 Bus2=105925011.1.2.3 LineCode=653_ACSR_3PH_12KV_3 Length=0.002814 units=km
New Line.ND105925011$590E phases=4 Bus1=105925011.0.1.2.3 Bus2=100158639.0.1.2.3 LineCode=653_ACSR_3PH_653_ACSR_N_12KV_4 Length=0.148969 units=km
New Line.ND105925011$4465591ET1 phases=4 Bus1=105925011.0.1.2.3 Bus2=184119160.0.1.2.3 LineCode=4_ACSR_3PH_4_ACSR_N_12KV_4 Length=0.004449 units=km
New Line.J088A-4P$V5492088 phases=1 Bus1=240308640.1 Bus2=240308766.1 LineCode=1/0_JCN_1PH_12KV_1 Length=0.001485 units=km
New Line.GS5498-1$GS6334-3 phases=3 Bus1=106182510.1.2.3 Bus2=106182827.1.2.3 LineCode=1000_CLP_3PH_12KV_3 Length=0.32002 units=km
New Line.GS8272-2$590E phases=3 Bus1=100158640.1.2.3 Bus2=214853780.1.2.3 LineCode=1000_JCN_3PH_12KV_3 Length=0.080702 units=km
New Line.4465591ET1$4204898E phases=4 Bus1=184119161.0.1.2.3 Bus2=57472485.0.1.2.3 LineCode=4_ACSR_3PH_4_ACSR_N_12KV_4 Length=0.065019 units=km
New Line.GS8272-1$PME6381-2 phases=3 Bus1=214853771.1.2.3 Bus2=101621997.1.2.3 LineCode=1/0_CLP_3PH_12KV_3 Length=0.053462 units=km
New Line.PME6662-2$GS5498-2 phases=3 Bus1=106182819.1.2.3 Bus2=108454033.1.2.3 LineCode=750_JCN_3PH_12KV_3 Length=0.466616 units=km
New Line.GS8272-3$PME8273-2 phases=3 Bus1=214853789.1.2.3 Bus2=214853989.1.2.3 LineCode=350_JCN_3PH_12KV_3 Length=0.136695 units=km
New Line.GS6556-1$GS8272-4 phases=3 Bus1=214853798.1.2.3 Bus2=105917042.1.2.3 LineCode=1000_JCN_3PH_12KV_3 Length=0.270774 units=km
New Line.J472-2P$GS5498-3 phases=3 Bus1=106182835.1.2.3 Bus2=106183456.1.2.3 LineCode=2_CLP_3PH_12KV_3 Length=0.052339 units=km
New Line.J391-3P$GS8272-5 phases=3 Bus1=214853807.1.2.3 Bus2=100158549.1.2.3 LineCode=1/0_CLP_3PH_12KV_3 Length=0.067667 units=km
New Line.GS6494-1$GS5498-4 phases=3 Bus1=106182843.1.2.3 Bus2=106183036.1.2.3 LineCode=1000_CLP_3PH_12KV_3 Length=0.278963 units=km
New Line.110601020$PME6662-3 phases=3 Bus1=108454015.1.2.3 Bus2=110601022.1.2.3 LineCode=2_CLP_3PH_12KV_3 Length=0.258834 units=km
New Line.ND166684846$PME6381-3 phases=3 Bus1=101621979.1.2.3 Bus2=166684846.1.2.3 LineCode=2_CLP_3PH_12KV_3 Length=0.02986 units=km
New Line.PME8273-3$217032274 phases=3 Bus1=214853971.1.2.3 Bus2=217032277.1.2.3 LineCode=1/0_JCN_3PH_12KV_3 Length=0.002381 units=km
New Line.101622606$ND166684846 phases=1 Bus1=166684846.2 Bus2=101622608.2 LineCode=2_CLP_1PH_12KV_1 Length=0.062862 units=km
New Line.PME6381-4$102075367 phases=1 Bus1=101621988.1 Bus2=102075369.1 LineCode=2_CLP_1PH_12KV_1 Length=0.222238 units=km
New Line.ND148028579$ND166684846 phases=2 Bus1=166684846.1.3 Bus2=148028579.1.3 LineCode=2_CLP_2PH_12KV_2 Length=0.348277 units=km
New Line.PME6381-1$ND177706490 phases=3 Bus1=101622006.1.2.3 Bus2=177706490.1.2.3 LineCode=1/0_JCN_3PH_12KV_3 Length=0.009843 units=km
New Line.ND191997990$PME6662-4 phases=3 Bus1=108454024.1.2.3 Bus2=191997990.1.2.3 LineCode=2_CLP_3PH_12KV_3 Length=0.018299 units=km
New Line.PME6662-1$ND201251553 phases=3 Bus1=108454042.1.2.3 Bus2=201251553.1.2.3 LineCode=750_JCN_3PH_12KV_3 Length=0.483294 units=km
New Line.PME8273-4$217032306 phases=3 Bus1=214853980.1.2.3 Bus2=217032309.1.2.3 LineCode=1/0_JCN_3PH_12KV_3 Length=0.002141 units=km
New Line.J390-1P$GS6556-2 phases=3 Bus1=105917050.1.2.3 Bus2=105918695.1.2.3 LineCode=2_CLP_3PH_12KV_3 Length=0.078644 units=km
New Line.V5594472$J472-1P phases=1 Bus1=106183440.3 Bus2=106183595.3 LineCode=2_CLP_1PH_12KV_1 Length=0.001143 units=km
New Line.PME6493-4$J472-3P phases=3 Bus1=106183448.1.2.3 Bus2=106326338.1.2.3 LineCode=2_CLP_3PH_12KV_3 Length=0.254363 units=km
New Line.ND201251553$S5541284 phases=3 Bus1=201251553.1.2.3 Bus2=108454203.1.2.3 LineCode=750_JCN_3PH_12KV_3 Length=0.00273 units=km
New Line.ND191997990$J202-4P phases=3 Bus1=191997990.1.2.3 Bus2=108521159.1.2.3 LineCode=2_CLP_3PH_12KV_3 Length=0.193919 units=km
New Line.P5583201$ND191997990 phases=3 Bus1=191997990.1.2.3 Bus2=108521287.1.2.3 LineCode=2_CLP_3PH_12KV_3 Length=0.005479 units=km
New Line.ND191997990$110517703 phases=1 Bus1=191997990.1 Bus2=110517705.1 LineCode=2_CLP_1PH_12KV_1 Length=0.13738 units=km
New Line.110601020$J200-1P phases=3 Bus1=110601023.1.2.3 Bus2=110600854.1.2.3 LineCode=2_CLP_3PH_12KV_3 Length=0.000823 units=km
New Line.ND148028579$ND148361905 phases=2 Bus1=148028579.1.3 Bus2=148361905.1.3 LineCode=2_CLP_2PH_12KV_2 Length=0.079048 units=km
New Line.190985453$ND148028579 phases=1 Bus1=148028579.3 Bus2=190985455.3 LineCode=2_CLP_1PH_12KV_1 Length=0.042198 units=km
New Line.ND211960949$ND201251553 phases=3 Bus1=201251553.1.2.3 Bus2=211960949.1.2.3 LineCode=1000_JCN_3PH_12KV_3 Length=0.125839 units=km
New Line.217032232$217032274 phases=3 Bus1=217032276.1.2.3 Bus2=217032234.1.2.3 LineCode=1/0_JCN_3PH_12KV_3 Length=0.145614 units=km
New Line.101622606$P5569602-1 phases=1 Bus1=101622609.2 Bus2=101622135.2 LineCode=2_CLP_1PH_12KV_1 Length=0.002464 units=km
New Line.101701547$ND148361905 phases=1 Bus1=148361905.3 Bus2=101701549.3 LineCode=2_CLP_1PH_12KV_1 Length=0.069953 units=km
New Line.101701571$ND148361905 phases=1 Bus1=148361905.3 Bus2=101701573.3 LineCode=2_CLP_1PH_12KV_1 Length=0.072322 units=km
New Line.J474-2P$GS6494-2 phases=3 Bus1=106183028.1.2.3 Bus2=144704401.1.2.3 LineCode=2_CLP_3PH_12KV_3 Length=0.085825 units=km
New Line.ND148361905$ND148361947 phases=2 Bus1=148361905.1.3 Bus2=148361947.1.3 LineCode=2_CLP_2PH_12KV_2 Length=0.00717 units=km
New Line.GS6556-3$GS7034-1 phases=3 Bus1=105917058.1.2.3 Bus2=149057127.1.2.3 LineCode=750_CLP_3PH_12KV_3 Length=0.254299 units=km
New Line.RCS0576-3$ND211960949 phases=3 Bus1=211960949.1.2.3 Bus2=165798042.1.2.3 LineCode=1000_JCN_3PH_12KV_3 Length=0.559715 units=km
New Line.102075367$ND169244070 phases=1 Bus1=102075370.1 Bus2=169244070.1 LineCode=2_CLP_1PH_12KV_1 Length=0.005064 units=km
New Line.ND211960949$GS8080-1 phases=3 Bus1=211960949.1.2.3 Bus2=211960478.1.2.3 LineCode=1000_JCN_3PH_12KV_3 Length=0.014524 units=km
New Line.217032306$217032331 phases=3 Bus1=217032308.1.2.3 Bus2=217032333.1.2.3 LineCode=1/0_JCN_3PH_12KV_3 Length=0.102636 units=km
New Line.101701690$ND148361947 phases=1 Bus1=148361947.1 Bus2=101701692.1 LineCode=2_CLP_1PH_12KV_1 Length=0.224751 units=km
New Line.ND169244070$P5569613-1 phases=1 Bus1=169244070.1 Bus2=102074951.1 LineCode=2_CLP_1PH_12KV_1 Length=0.00362 units=km
New Line.ND169244070$102075469 phases=1 Bus1=169244070.1 Bus2=102075471.1 LineCode=2_CLP_1PH_12KV_1 Length=0.100802 units=km
New Line.102075569$ND148361947 phases=1 Bus1=148361947.3 Bus2=102075571.3 LineCode=2_CLP_1PH_12KV_1 Length=0.119582 units=km
New Line.110517703$P5606538-2 phases=1 Bus1=110517706.1 Bus2=110565854.1 LineCode=2_CLP_1PH_12KV_1 Length=0.001189 units=km
New Line.GS6556-4$ND177705802 phases=3 Bus1=105917066.1.2.3 Bus2=177705802.1.2.3 LineCode=1000_JCN_3PH_12KV_3 Length=0.427426 units=km
New Line.P5569619-2$190985453 phases=1 Bus1=190985456.3 Bus2=190985383.3 LineCode=2_CLP_1PH_12KV_1 Length=0.002424 units=km
New Line.217032232$ND217031889 phases=3 Bus1=217032235.1.2.3 Bus2=217031889.1.2.3 LineCode=1/0_JCN_3PH_12KV_3 Length=0.009196 units=km
New Line.GS6494-3$ND237526866 phases=3 Bus1=106183044.1.2.3 Bus2=237526866.1.2.3 LineCode=1/0_CLP_3PH_12KV_3 Length=0.152032 units=km
New Line.243598080$J391-1P phases=1 Bus1=100158541.1 Bus2=243598082.1 LineCode=1/0_JCN_1PH_12KV_1 Length=0.050345 units=km
New Line.101701547$P5569623-2 phases=1 Bus1=101701550.3 Bus2=101701044.3 LineCode=2_CLP_1PH_12KV_1 Length=0.002232 units=km
New Line.101701571$P5569624-2 phases=1 Bus1=101701574.3 Bus2=101701180.3 LineCode=2_CLP_1PH_12KV_1 Length=0.002479 units=km
New Line.GS6494-4$GS6496-1 phases=3 Bus1=106183052.1.2.3 Bus2=106183321.1.2.3 LineCode=1000_CLP_3PH_12KV_3 Length=0.217625 units=km
New Line.PME6493-2$106327488 phases=1 Bus1=106326348.2 Bus2=106327490.2 LineCode=2_CLP_1PH_12KV_1 Length=0.262805 units=km
New Line.GS6557-3$ND177705802 phases=3 Bus1=177705802.1.2.3 Bus2=178099894.1.2.3 LineCode=1000_JCN_3PH_12KV_3 Length=0.026121 units=km
New Line.GS7578-1$ND177705802 phases=3 Bus1=177705802.1.2.3 Bus2=183491468.1.2.3 LineCode=1000_JCN_3PH_12KV_3 Length=0.080826 units=km
New Line.217032331$ND215814504 phases=3 Bus1=217032334.1.2.3 Bus2=215814504.1.2.3 LineCode=1/0_JCN_3PH_12KV_3 Length=0.004386 units=km
New Line.ND217031889$217032096 phases=1 Bus1=217031889.1 Bus2=217032099.1 LineCode=1/0_JCN_1PH_12KV_1 Length=0.012826 units=km
New Line.ND217031889$217032126 phases=1 Bus1=217031889.2 Bus2=217032129.2 LineCode=1/0_JCN_1PH_12KV_1 Length=0.013397 units=km
New Line.ND217031889$217032168 phases=1 Bus1=217031889.3 Bus2=217032171.3 LineCode=1/0_JCN_1PH_12KV_1 Length=0.005637 units=km
New Line.P5569602-2$101622633 phases=1 Bus1=101622144.2 Bus2=101622636.2 LineCode=2_CLP_1PH_12KV_1 Length=0.002787 units=km
New Line.P5569626-2$101701690 phases=1 Bus1=101701693.1 Bus2=101701248.1 LineCode=2_CLP_1PH_12KV_1 Length=0.003097 units=km
New Line.102075569$P5569621-1 phases=1 Bus1=102075572.3 Bus2=102074733.3 LineCode=2_CLP_1PH_12KV_1 Length=0.001815 units=km
New Line.102075469$P5569615-2 phases=1 Bus1=102075472.1 Bus2=102075114.1 LineCode=2_CLP_1PH_12KV_1 Length=0.001655 units=km
New Line.PME6493-1$106327210 phases=1 Bus1=106326366.3 Bus2=106327212.3 LineCode=2_CLP_1PH_12KV_1 Length=0.114482 units=km
New Line.J200-2P$110601032 phases=1 Bus1=110600878.2 Bus2=110601035.2 LineCode=2_CLP_1PH_12KV_1 Length=0.001015 units=km
New Line.144244780$J202-3P phases=1 Bus1=108521151.3 Bus2=144244782.3 LineCode=2_CLP_1PH_12KV_1 Length=0.199273 units=km
New Line.ND145064994$PME6493-3 phases=1 Bus1=106326357.1 Bus2=145064994.1 LineCode=2_CLP_1PH_12KV_1 Length=0.10363 units=km
New Line.ND215814504$ND215814671 phases=1 Bus1=215814504.1 Bus2=215814671.1 LineCode=1/0_JCN_1PH_12KV_1 Length=0.005964 units=km
New Line.215815473$ND215814504 phases=1 Bus1=215814504.2 Bus2=215815476.2 LineCode=1/0_JCN_1PH_12KV_1 Length=0.005286 units=km
New Line.217032356$ND215814504 phases=1 Bus1=215814504.3 Bus2=217032359.3 LineCode=1/0_JCN_1PH_12KV_1 Length=0.011418 units=km
New Line.243598080$P5728231-2 phases=1 Bus1=243598083.1 Bus2=243598007.1 LineCode=1/0_JCN_1PH_12KV_1 Length=0.000846 units=km
New Line.102075394$P5569613-2 phases=1 Bus1=102074960.1 Bus2=102075397.1 LineCode=2_CLP_1PH_12KV_1 Length=0.004223 units=km
New Line.V5594474$J474-1P phases=1 Bus1=144704377.2 Bus2=105609831.2 LineCode=2_CLP_1PH_12KV_1 Length=0.001372 units=km
New Line.PME6495-4$J474-3P phases=2 Bus1=144704385.1.2 Bus2=106127074.1.2 LineCode=2_CLP_2PH_12KV_2 Length=0.140934 units=km
New Line.J390-3P$PME6360-4 phases=3 Bus1=105918703.1.2.3 Bus2=106127405.1.2.3 LineCode=2_CLP_3PH_12KV_3 Length=0.016824 units=km
New Line.106327488$P5606107-2 phases=1 Bus1=106327491.2 Bus2=106326966.2 LineCode=2_CLP_1PH_12KV_1 Length=0.001364 units=km
New Line.106327250$ND145064994 phases=1 Bus1=145064994.1 Bus2=106327252.1 LineCode=2_CLP_1PH_12KV_1 Length=0.019588 units=km
New Line.ND145064994$106327626 phases=1 Bus1=145064994.1 Bus2=106327628.1 LineCode=2_CLP_1PH_12KV_1 Length=0.063517 units=km
New Line.P5606538-1$110517728 phases=1 Bus1=110565845.1 Bus2=110517731.1 LineCode=2_CLP_1PH_12KV_1 Length=0.001254 units=km
New Line.J200-3P$110601042 phases=1 Bus1=110600862.1 Bus2=110601045.1 LineCode=2_CLP_1PH_12KV_1 Length=0.000992 units=km
New Line.J202-2P$148943090 phases=1 Bus1=108521167.1 Bus2=148943093.1 LineCode=2_CLP_1PH_12KV_1 Length=0.001497 units=km
New Line.GS7034-2$J252A-4P phases=3 Bus1=149057119.1.2.3 Bus2=150420345.1.2.3 LineCode=1/0_CLP_3PH_12KV_3 Length=0.064508 units=km
New Line.190985480$P5569619-1 phases=1 Bus1=190985374.3 Bus2=190985483.3 LineCode=2_CLP_1PH_12KV_1 Length=0.00364 units=km
New Line.215815507$ND215814671 phases=1 Bus1=215814671.1 Bus2=215815510.1 LineCode=1/0_JCN_1PH_12KV_1 Length=0.005691 units=km
New Line.217031931$217032168 phases=1 Bus1=217032170.3 Bus2=217031933.3 LineCode=1/0_JCN_1PH_12KV_1 Length=0.144801 units=km
New Line.217032046$217032096 phases=1 Bus1=217032098.1 Bus2=217032048.1 LineCode=1/0_JCN_1PH_12KV_1 Length=0.14702 units=km
New Line.217032126$217032193 phases=1 Bus1=217032128.2 Bus2=217032195.2 LineCode=1/0_JCN_1PH_12KV_1 Length=0.098403 units=km
New Line.101622633$101622658 phases=1 Bus1=101622635.2 Bus2=101622660.2 LineCode=2_CLP_1PH_12KV_1 Length=0.109152 units=km
New Line.P5569624-1$101701619 phases=1 Bus1=101701171.3 Bus2=101701622.3 LineCode=2_CLP_1PH_12KV_1 Length=0.001681 units=km
New Line.106327210$P5606112-1 phases=1 Bus1=106327213.3 Bus2=106326468.3 LineCode=2_CLP_1PH_12KV_1 Length=0.00113 units=km
New Line.J200-4P$110601052 phases=1 Bus1=110600870.3 Bus2=110601055.3 LineCode=2_CLP_1PH_12KV_1 Length=0.00082 units=km
New Line.ND143967875$J202-1P phases=1 Bus1=108521143.2 Bus2=143967875.2 LineCode=2_CLP_1PH_12KV_1 Length=0.065811 units=km
New Line.GS7034-3$J262-1P phases=3 Bus1=149057135.1.2.3 Bus2=149057396.1.2.3 LineCode=750_CLP_3PH_12KV_3 Length=0.218808 units=km
New Line.215815473$215814618 phases=1 Bus1=215815475.2 Bus2=215814620.2 LineCode=1/0_JCN_1PH_12KV_1 Length=0.135979 units=km
New Line.217032356$217032381 phases=1 Bus1=217032358.3 Bus2=217032383.3 LineCode=1/0_JCN_1PH_12KV_1 Length=0.017717 units=km
New Line.110601032$S5583200 phases=1 Bus1=110601034.2 Bus2=236788743.2 LineCode=2_CLP_1PH_12KV_1 Length=0.01059 units=km
New Line.J474-4P$237225801 phases=3 Bus1=144704393.1.2.3 Bus2=237225803.1.2.3 LineCode=2_CLP_3PH_12KV_3 Length=0.104526 units=km
New Line.P5569626-1$101701724 phases=1 Bus1=101701239.1 Bus2=101701727.1 LineCode=2_CLP_1PH_12KV_1 Length=0.002416 units=km
New Line.102075394$102075419 phases=1 Bus1=102075396.1 Bus2=102075421.1 LineCode=2_CLP_1PH_12KV_1 Length=0.086857 units=km
New Line.P5569615-1$102075494 phases=1 Bus1=102075105.1 Bus2=102075497.1 LineCode=2_CLP_1PH_12KV_1 Length=0.002488 units=km
New Line.102075544$190985480 phases=1 Bus1=190985482.3 Bus2=102075546.3 LineCode=2_CLP_1PH_12KV_1 Length=0.093303 units=km
New Line.GS6496-2$J477-1P phases=1 Bus1=106183313.3 Bus2=105610145.3 LineCode=2_CLP_1PH_12KV_1 Length=0.074211 units=km
New Line.106327250$P5606105-1 phases=1 Bus1=106327253.1 Bus2=106326537.1 LineCode=2_CLP_1PH_12KV_1 Length=0.001194 units=km
New Line.106327626$P5606103-1 phases=1 Bus1=106327629.1 Bus2=106327563.1 LineCode=2_CLP_1PH_12KV_1 Length=0.000715 units=km
New Line.109656614$110601042 phases=1 Bus1=110601044.1 Bus2=109656616.1 LineCode=2_CLP_1PH_12KV_1 Length=0.089142 units=km
New Line.110517753$110517728 phases=1 Bus1=110517730.1 Bus2=110517755.1 LineCode=2_CLP_1PH_12KV_1 Length=0.14313 units=km
New Line.110517781$ND143967875 phases=1 Bus1=143967875.2 Bus2=110517783.2 LineCode=2_CLP_1PH_12KV_1 Length=0.048772 units=km
New Line.110517881$ND143967875 phases=1 Bus1=143967875.2 Bus2=110517883.2 LineCode=2_CLP_1PH_12KV_1 Length=0.016488 units=km
New Line.S5583200$ND148942976 phases=1 Bus1=236788743.2 Bus2=148942976.2 LineCode=2_CLP_1PH_12KV_1 Length=0.22042 units=km
New Line.148943090$148943123 phases=1 Bus1=148943092.1 Bus2=148943125.1 LineCode=2_CLP_1PH_12KV_1 Length=0.147298 units=km
New Line.J261A-1P$GS7034-4 phases=3 Bus1=149057143.1.2.3 Bus2=149057559.1.2.3 LineCode=750_CLP_3PH_12KV_3 Length=0.360004 units=km
New Line.P5742498-2$217032046 phases=1 Bus1=217032049.1 Bus2=214854199.1 LineCode=1/0_JCN_1PH_12KV_1 Length=0.000866 units=km
New Line.P5742500-1$217031931 phases=1 Bus1=217031934.3 Bus2=214854258.3 LineCode=1/0_JCN_1PH_12KV_1 Length=0.001296 units=km
New Line.215815507$215814943 phases=1 Bus1=215815509.1 Bus2=215814945.1 LineCode=1/0_JCN_1PH_12KV_1 Length=0.246296 units=km
New Line.217032193$215815146 phases=1 Bus1=217032196.2 Bus2=215815149.2 LineCode=1/0_JCN_1PH_12KV_1 Length=0.010328 units=km
New Line.101622658$P5569603-1 phases=1 Bus1=101622661.2 Bus2=101622203.2 LineCode=2_CLP_1PH_12KV_1 Length=0.001535 units=km
New Line.101701595$101701619 phases=1 Bus1=101701621.3 Bus2=101701597.3 LineCode=2_CLP_1PH_12KV_1 Length=0.02444 units=km
New Line.105610713$PME6495-2 phases=1 Bus1=106127084.2 Bus2=105610715.2 LineCode=2_CLP_1PH_12KV_1 Length=0.282782 units=km
New Line.106327478$P5606107-1 phases=1 Bus1=106326957.2 Bus2=106327481.2 LineCode=2_CLP_1PH_12KV_1 Length=0.001497 units=km
New Line.110601052$143902261 phases=1 Bus1=110601054.3 Bus2=143902263.3 LineCode=2_CLP_1PH_12KV_1 Length=0.108792 units=km
New Line.PME6900-4$237225801 phases=3 Bus1=237225804.1.2.3 Bus2=144704835.1.2.3 LineCode=2_CLP_3PH_12KV_3 Length=0.00988 units=km
New Line.ND148942976$148943488 phases=1 Bus1=148942976.2 Bus2=148943490.2 LineCode=2_CLP_1PH_12KV_1 Length=0.058001 units=km
New Line.ND148942976$148943513 phases=1 Bus1=148942976.2 Bus2=148943515.2 LineCode=2_CLP_1PH_12KV_1 Length=0.101062 units=km
New Line.217032381$P5742493-2 phases=1 Bus1=217032384.3 Bus2=214854498.3 LineCode=1/0_JCN_1PH_12KV_1 Length=0.001613 units=km
New Line.215814618$P5742507-2 phases=1 Bus1=215814621.2 Bus2=215814131.2 LineCode=1/0_JCN_1PH_12KV_1 Length=0.00057 units=km
New Line.PME6360-2$246349648 phases=1 Bus1=106127415.2 Bus2=246349651.2 LineCode=2_CLP_1PH_12KV_1 Length=0.000753 units=km
New Line.101701787$101701724 phases=1 Bus1=101701726.1 Bus2=101701789.1 LineCode=2_CLP_1PH_12KV_1 Length=0.03814 units=km
New Line.102075544$P5569620-2 phases=1 Bus1=102075547.3 Bus2=102074843.3 LineCode=2_CLP_1PH_12KV_1 Length=0.002302 units=km
New Line.102075419$P5569614-1 phases=1 Bus1=102075422.1 Bus2=102075024.1 LineCode=2_CLP_1PH_12KV_1 Length=0.002032 units=km
New Line.102075494$ND102075340 phases=1 Bus1=102075496.1 Bus2=102075340.1 LineCode=2_CLP_1PH_12KV_1 Length=0.066287 units=km
New Line.106327533$P5606112-2 phases=1 Bus1=106326477.3 Bus2=106327536.3 LineCode=2_CLP_1PH_12KV_1 Length=0.000921 units=km
New Line.109656614$P5606356-2 phases=1 Bus1=109656617.1 Bus2=109656221.1 LineCode=2_CLP_1PH_12KV_1 Length=0.000592 units=km
New Line.P5606541-2$110517881 phases=1 Bus1=110517884.2 Bus2=110517499.2 LineCode=2_CLP_1PH_12KV_1 Length=0.001765 units=km
New Line.110517753$P5606539-2 phases=1 Bus1=110517756.1 Bus2=110565960.1 LineCode=2_CLP_1PH_12KV_1 Length=0.000888 units=km
New Line.110517781$P5606552-1 phases=1 Bus1=110517784.2 Bus2=110566105.2 LineCode=2_CLP_1PH_12KV_1 Length=0.001487 units=km
New Line.148943123$FC6962-1 phases=1 Bus1=148943126.1 Bus2=148943006.1 LineCode=2_CLP_1PH_12KV_1 Length=0.001446 units=km
New Line.J252A-3P$FC7041-1 phases=1 Bus1=150420337.3 Bus2=150188776.3 LineCode=2_JCN_1PH_12KV_1 Length=0.096455 units=km
New Line.215814943$P5742510-2 phases=1 Bus1=215814946.1 Bus2=215813927.1 LineCode=1/0_JCN_1PH_12KV_1 Length=0.000591 units=km
New Line.215815146$215814988 phases=1 Bus1=215815148.2 Bus2=215814990.2 LineCode=1/0_JCN_1PH_12KV_1 Length=0.115112 units=km
New Line.ND242547394$PME6495-1 phases=1 Bus1=106127102.1 Bus2=242547394.1 LineCode=2_CLP_1PH_12KV_1 Length=0.064264 units=km
New Line.246349621$PME6360-1 phases=1 Bus1=106127433.3 Bus2=246349624.3 LineCode=2_CLP_1PH_12KV_1 Length=0.126941 units=km
New Line.PME6360-3$246349673 phases=2 Bus1=106127424.1.3 Bus2=246349676.1.3 LineCode=2_CLP_2PH_12KV_2 Length=0.00075 units=km
New Line.101701595$P5569625-2 phases=1 Bus1=101701598.3 Bus2=101701112.3 LineCode=2_CLP_1PH_12KV_1 Length=0.001607 units=km
New Line.102075444$ND102075340 phases=1 Bus1=102075340.1 Bus2=102075446.1 LineCode=2_CLP_1PH_12KV_1 Length=0.125217 units=km
New Line.ND102075340$102075519 phases=1 Bus1=102075340.1 Bus2=102075521.1 LineCode=2_CLP_1PH_12KV_1 Length=0.03871 units=km
New Line.105610713$P5607666-2 phases=1 Bus1=105610716.2 Bus2=105610420.2 LineCode=2_CLP_1PH_12KV_1 Length=0.001348 units=km
New Line.106070133$ND242547394 phases=1 Bus1=242547394.1 Bus2=106070135.1 LineCode=2_CLP_1PH_12KV_1 Length=0.061747 units=km
New Line.246349648$106127851 phases=1 Bus1=246349650.2 Bus2=106127853.2 LineCode=2_CLP_1PH_12KV_1 Length=0.079759 units=km
New Line.106327240$P5606105-2 phases=1 Bus1=106326546.1 Bus2=106327243.1 LineCode=2_CLP_1PH_12KV_1 Length=0.001053 units=km
New Line.106327478$106327468 phases=1 Bus1=106327480.2 Bus2=106327470.2 LineCode=2_CLP_1PH_12KV_1 Length=0.025965 units=km
New Line.143902261$P5606536-1 phases=1 Bus1=143902264.3 Bus2=108521490.3 LineCode=2_CLP_1PH_12KV_1 Length=0.001015 units=km
New Line.148943488$P5608691-2 phases=1 Bus1=148943491.2 Bus2=148942737.2 LineCode=2_CLP_1PH_12KV_1 Length=0.001034 units=km