! OpenDSS script generated from multiconductor network
Clear

New Circuit.mc_network basekv=12.0 pu=1.000000 angle=0.00 frequency=60.0 phases=3 Mvasc3=143993 Mvasc1=47997.6
~ bus1=-8888882132862.1.2.3

! Line codes
New LineCode.UNK_UNK_3PH_12KV_3 nphases=3 units=km Rmatrix=[ 0.001402 | 0 0.001402 | 0 0 0.001402 ] Xmatrix=[ 0.000429 | 0 0.000429 | 0 0 0.000429 ] Cmatrix=[ 0 | 0 0 | 0 0 0 ]
New LineCode.1000_JCN_3PH_12KV_3 nphases=3 units=km Rmatrix=[ 0.039495 | 0 0.039495 | 0 0 0.039495 ] Xmatrix=[ 0.059783 | 0 0.059783 | 0 0 0.059783 ] Cmatrix=[ 0 | 0 0 | 0 0 0 ]
New LineCode.1000_CLP_3PH_12KV_3 nphases=3 units=km Rmatrix=[ 0.035107 | 0 0.035107 | 0 0 0.035107 ] Xmatrix=[ 0.053142 | 0 0.053142 | 0 0 0.053142 ] Cmatrix=[ 0 | 0 0 | 0 0 0 ]
New LineCode.2_CLP_3PH_12KV_3 nphases=3 units=km Rmatrix=[ 0.00399 | 0 0.00399 | 0 0 0.00399 ] Xmatrix=[ 0.000841 | 0 0.000841 | 0 0 0.000841 ] Cmatrix=[ 0 | 0 0 | 0 0 0 ]
New LineCode.2_CLP_1PH_12KV_1 nphases=1 units=km Rmatrix=[ 0.000686 ] Xmatrix=[ 0.000145 ] Cmatrix=[ 0 ]
New LineCode.750_CLP_3PH_12KV_3 nphases=3 units=km Rmatrix=[ 0.056222 | 0 0.056222 | 0 0 0.056222 ] Xmatrix=[ 0.069048 | 0 0.069048 | 0 0 0.069048 ] Cmatrix=[ 0 | 0 0 | 0 0 0 ]
New LineCode.1/0_CLP_3PH_12KV_3 nphases=3 units=km Rmatrix=[ 0.118037 | 0 0.118037 | 0 0 0.118037 ] Xmatrix=[ 0.036078 | 0 0.036078 | 0 0 0.036078 ] Cmatrix=[ 0 | 0 0 | 0 0 0 ]
New LineCode.350_AL_3PH_12KV_3 nphases=3 units=km Rmatrix=[ 0.023009 | 0 0.023009 | 0 0 0.023009 ] Xmatrix=[ 0.017482 | 0 0.017482 | 0 0 0.017482 ] Cmatrix=[ 0 | 0 0 | 0 0 0 ]
New LineCode.1/0_CLP_1PH_12KV_1 nphases=1 units=km Rmatrix=[ 0.001696 ] Xmatrix=[ 0.000518 ] Cmatrix=[ 0 ]
New LineCode.1/0_JCN_1PH_12KV_1 nphases=1 units=km Rmatrix=[ 0.002026 ] Xmatrix=[ 0.000619 ] Cmatrix=[ 0 ]
New LineCode.336_ACSR_1PH_336_ACSR_N_12KV_4 nphases=4 units=km Rmatrix=[ 0.001164 | 0 0.001164 | 0 0 0.001164 | 0 0 0 0.001164 ] Xmatrix=[ 0.002321 | 0 0.002321 | 0 0 0.002321 | 0 0 0 0.002321 ] Cmatrix=[ 0 | 0 0 | 0 0 0 | 0 0 0 0 ]
New LineCode.2_AL_3PH_12KV_3 nphases=3 units=km Rmatrix=[ 0.007404 | 0 0.007404 | 0 0 0.007404 ] Xmatrix=[ 0.001561 | 0 0.001561 | 0 0 0.001561 ] Cmatrix=[ 0 | 0 0 | 0 0 0 ]
New LineCode.2_JCN_1PH_12KV_1 nphases=1 units=km Rmatrix=[ 0.067827 ] Xmatrix=[ 0.014297 ] Cmatrix=[ 0 ]
New LineCode.350_AL_1PH_12KV_1 nphases=1 units=km Rmatrix=[ 0.038972 ] Xmatrix=[ 0.029611 ] Cmatrix=[ 0 ]
New LineCode.4_ACSR_3PH_4_ACSR_N_12KV_4 nphases=4 units=km Rmatrix=[ 0.113039 | 0 0.113039 | 0 0 0.113039 | 0 0 0 0.113039 ] Xmatrix=[ 0.038021 | 0 0.038021 | 0 0 0.038021 | 0 0 0 0.038021 ] Cmatrix=[ 0 | 0 0 | 0 0 0 | 0 0 0 0 ]
New LineCode.2_AL_1PH_12KV_1 nphases=1 units=km Rmatrix=[ 0.038241 ] Xmatrix=[ 0.008061 ] Cmatrix=[ 0 ]
New LineCode.336_ACSR_3PH_336_ACSR_N_12KV_4 nphases=4 units=km Rmatrix=[ 0.038453 | 0 0.038453 | 0 0 0.038453 | 0 0 0 0.038453 ] Xmatrix=[ 0.076684 | 0 0.076684 | 0 0 0.076684 | 0 0 0 0.076684 ] Cmatrix=[ 0 | 0 0 | 0 0 0 | 0 0 0 0 ]
New LineCode.1/0_JCN_3PH_12KV_3 nphases=3 units=km Rmatrix=[ 0.000998 | 0 0.000998 | 0 0 0.000998 ] Xmatrix=[ 0.000305 | 0 0.000305 | 0 0 0.000305 ] Cmatrix=[ 0 | 0 0 | 0 0 0 ]
New LineCode.2_CLP_2PH_12KV_2 nphases=2 units=km Rmatrix=[ 0.220398 | 0 0.220398 ] Xmatrix=[ 0.046456 | 0 0.046456 ] Cmatrix=[ 0 | 0 0 ]
New LineCode.350_JCN_3PH_12KV_3 nphases=3 units=km Rmatrix=[ 0.022509 | 0 0.022509 | 0 0 0.022509 ] Xmatrix=[ 0.017102 | 0 0.017102 | 0 0 0.017102 ] Cmatrix=[ 0 | 0 0 | 0 0 0 ]
New LineCode.2_JCN_2PH_12KV_2 nphases=2 units=km Rmatrix=[ 0.103229 | 0 0.103229 ] Xmatrix=[ 0.021759 | 0 0.021759 ] Cmatrix=[ 0 | 0 0 ]
New LineCode.1/0_CLP_2PH_12KV_2 nphases=2 units=km Rmatrix=[ 0.004643 | 0 0.004643 ] Xmatrix=[ 0.001419 | 0 0.001419 ] Cmatrix=[ 0 | 0 0 ]
New LineCode.2_JCN_3PH_12KV_3 nphases=3 units=km Rmatrix=[ 0.451273 | 0 0.451273 | 0 0 0.451273 ] Xmatrix=[ 0.09512 | 0 0.09512 | 0 0 0.09512 ] Cmatrix=[ 0 | 0 0 | 0 0 0 ]
New LineCode.1/0_JCN_2PH_12KV_2 nphases=2 units=km Rmatrix=[ 0.058982 | 0 0.058982 ] Xmatrix=[ 0.018028 | 0 0.018028 ] Cmatrix=[ 0 | 0 0 ]
New LineCode.350_CLP_3PH_12KV_3 nphases=3 units=km Rmatrix=[ 0.070243 | 0 0.070243 | 0 0 0.070243 ] Xmatrix=[ 0.05337 | 0 0.05337 | 0 0 0.05337 ] Cmatrix=[ 0 | 0 0 | 0 0 0 ]
New LineCode.336_ACSR_1PH_336_ACSR_N_12KV_3_N nphases=3 units=km Rmatrix=[ 0.001164 | 0 0.001164 | 0 0 0.001164 ] Xmatrix=[ 0.002321 | 0 0.002321 | 0 0 0.002321 ] Cmatrix=[ 0 | 0 0 | 0 0 0 ]
New LineCode.4_ACSR_2PH_12KV_2 nphases=2 units=km Rmatrix=[ 0.133269 | 0 0.133269 ] Xmatrix=[ 0.048902 | 0 0.048902 ] Cmatrix=[ 0 | 0 0 ]
New LineCode.2_ACSR_2PH_2_ACSR_N_12KV_3_N nphases=3 units=km Rmatrix=[ 0.008681 | 0 0.008681 | 0 0 0.008681 ] Xmatrix=[ 0.004206 | 0 0.004206 | 0 0 0.004206 ] Cmatrix=[ 0 | 0 0 | 0 0 0 ]
New LineCode.336_ACSR_3PH_12KV_3 nphases=3 units=km Rmatrix=[ 0.016957 | 0 0.016957 | 0 0 0.016957 ] Xmatrix=[ 0.037972 | 0 0.037972 | 0 0 0.037972 ] Cmatrix=[ 0 | 0 0 | 0 0 0 ]
New LineCode.2_ACSR_3PH_12KV_3 nphases=3 units=km Rmatrix=[ 0.001179 | 0 0.001179 | 0 0 0.001179 ] Xmatrix=[ 0.000634 | 0 0.000634 | 0 0 0.000634 ] Cmatrix=[ 0 | 0 0 | 0 0 0 ]
New LineCode.2_CU_3PH_12KV_3 nphases=3 units=km Rmatrix=[ 0.00208 | 0 0.00208 | 0 0 0.00208 ] Xmatrix=[ 0.001692 | 0 0.001692 | 0 0 0.001692 ] Cmatrix=[ 0 | 0 0 | 0 0 0 ]
New LineCode.1/0_ACSR_3PH_1/0_ACSR_N_12KV_4 nphases=4 units=km Rmatrix=[ 0.1373 | 0 0.1373 | 0 0 0.1373 | 0 0 0 0.1373 ] Xmatrix=[ 0.099226 | 0 0.099226 | 0 0 0.099226 | 0 0 0 0.099226 ] Cmatrix=[ 0 | 0 0 | 0 0 0 | 0 0 0 0 ]
New LineCode.1/0_ACSR_3PH_12KV_3 nphases=3 units=km Rmatrix=[ 0.043854 | 0 0.043854 | 0 0 0.043854 ] Xmatrix=[ 0.034916 | 0 0.034916 | 0 0 0.034916 ] Cmatrix=[ 0 | 0 0 | 0 0 0 ]
New LineCode.4_ACSR_3PH_12KV_3 nphases=3 units=km Rmatrix=[ 0.123488 | 0 0.123488 | 0 0 0.123488 ] Xmatrix=[ 0.045313 | 0 0.045313 | 0 0 0.045313 ] Cmatrix=[ 0 | 0 0 | 0 0 0 ]
New LineCode.4_ACSR_2PH_4_ACSR_N_12KV_3_N nphases=3 units=km Rmatrix=[ 0.151746 | 0 0.151746 | 0 0 0.151746 ] Xmatrix=[ 0.051041 | 0 0.051041 | 0 0 0.051041 ] Cmatrix=[ 0 | 0 0 | 0 0 0 ]
New LineCode.2_ACSR_3PH_2_ACSR_N_12KV_4 nphases=4 units=km Rmatrix=[ 0.003855 | 0 0.003855 | 0 0 0.003855 | 0 0 0 0.003855 ] Xmatrix=[ 0.001868 | 0 0.001868 | 0 0 0.001868 | 0 0 0 0.001868 ] Cmatrix=[ 0 | 0 0 | 0 0 0 | 0 0 0 0 ]
New LineCode.1/0_ACSR_1PH_1/0_ACSR_N_12KV_3_N nphases=3 units=km Rmatrix=[ 0.003147 | 0 0.003147 | 0 0 0.003147 ] Xmatrix=[ 0.002274 | 0 0.002274 | 0 0 0.002274 ] Cmatrix=[ 0 | 0 0 | 0 0 0 ]
New LineCode.1/0_ACSR_2PH_1/0_ACSR_N_12KV_3_N nphases=3 units=km Rmatrix=[ 0.000354 | 0 0.000354 | 0 0 0.000354 ] Xmatrix=[ 0.000256 | 0 0.000256 | 0 0 0.000256 ] Cmatrix=[ 0 | 0 0 | 0 0 0 ]
New LineCode.8_CU_3PH_12KV_3 nphases=3 units=km Rmatrix=[ 0.108707 | 0 0.108707 | 0 0 0.108707 ] Xmatrix=[ 0.038532 | 0 0.038532 | 0 0 0.038532 ] Cmatrix=[ 0 | 0 0 | 0 0 0 ]
New LineCode.1/0_ACSR_2PH_12KV_2 nphases=2 units=km Rmatrix=[ 0.000513 | 0 0.000513 ] Xmatrix=[ 0.000408 | 0 0.000408 ] Cmatrix=[ 0 | 0 0 ]
New LineCode.1/0_ATW_2PH_12KV_2 nphases=2 units=km Rmatrix=[ 1e-05 | 0 1e-05 ] Xmatrix=[ 1e-05 | 0 1e-05 ] Cmatrix=[ 0 | 0 0 ]
New LineCode.954_ACSR_3PH_954_ACSR_N_12KV_4 nphases=4 units=km Rmatrix=[ 1e-05 | 0 1e-05 | 0 0 1e-05 | 0 0 0 1e-05 ] Xmatrix=[ 1e-05 | 0 1e-05 | 0 0 1e-05 | 0 0 0 1e-05 ] Cmatrix=[ 0 | 0 0 | 0 0 0 | 0 0 0 0 ]
New LineCode.1/0_ATW_3PH_1/0_ATW_N_12KV_4 nphases=4 units=km Rmatrix=[ 1e-05 | 0 1e-05 | 0 0 1e-05 | 0 0 0 1e-05 ] Xmatrix=[ 1e-05 | 0 1e-05 | 0 0 1e-05 | 0 0 0 1e-05 ] Cmatrix=[ 0 | 0 0 | 0 0 0 | 0 0 0 0 ]
New LineCode.1/0_ATW_3PH_12KV_3 nphases=3 units=km Rmatrix=[ 1e-05 | 0 1e-05 | 0 0 1e-05 ] Xmatrix=[ 1e-05 | 0 1e-05 | 0 0 1e-05 ] Cmatrix=[ 0 | 0 0 | 0 0 0 ]

! Lines
New Line.65732878$LBFC2872-1 phases=3 Bus1=30563207.1.2.3 Bus2=65732881.1.2.3 LineCode=UNK_UNK_3PH_12KV_3 Length=1e-05 units=km
New Line.65732845$J384A-1P phases=3 Bus1=65732848.1.2.3 Bus2=30435763.1.2.3 LineCode=UNK_UNK_3PH_12KV_3 Length=1e-05 units=km
New Line.65732916$PME5393-2 phases=3 Bus1=30435686.1.2.3 Bus2=65732919.1.2.3 LineCode=UNK_UNK_3PH_12KV_3 Length=1e-05 units=km
New Line.GS7391-4$GS5405-2 phases=3 Bus1=173282685.1.2.3 Bus2=30374947.1.2.3 LineCode=1000_JCN_3PH_12KV_3 Length=0.876881 units=km
New Line.GS5405-3$ND102753156 phases=3 Bus1=30374955.1.2.3 Bus2=102753156.1.2.3 LineCode=1000_CLP_3PH_12KV_3 Length=0.025797 units=km
New Line.ND102753148$ND102753156 phases=3 Bus1=102753156.1.2.3 Bus2=102753148.1.2.3 LineCode=2_CLP_3PH_12KV_3 Length=0.211705 units=km
New Line.ND102753156$GS3066-3 phases=3 Bus1=102753156.1.2.3 Bus2=30375095.1.2.3 LineCode=1000_CLP_3PH_12KV_3 Length=0.43086 units=km
New Line.ND102753148$102753294 phases=1 Bus1=102753148.1 Bus2=102753296.1 LineCode=2_CLP_1PH_12KV_1 Length=0.082778 units=km
New Line.102753294$FC6553-1 phases=1 Bus1=102753297.1 Bus2=102753108.1 LineCode=2_CLP_1PH_12KV_1 Length=0.001136 units=km
New Line.FC6553-1$102753269 phases=1 Bus1=102753107.1 Bus2=102753272.1 LineCode=2_CLP_1PH_12KV_1 Length=0.001499 units=km
New Line.ND173259364$GS3066-1 phases=3 Bus1=30375079.1.2.3 Bus2=173259364.1.2.3 LineCode=750_CLP_3PH_12KV_3 Length=0.774163 units=km
New Line.ND173259364$GS1287-2 phases=3 Bus1=173259364.1.2.3 Bus2=176583500.1.2.3 LineCode=750_CLP_3PH_12KV_3 Length=0.027865 units=km
New Line.ND173259364$GS3067-1 phases=3 Bus1=173259364.1.2.3 Bus2=30432306.1.2.3 LineCode=750_CLP_3PH_12KV_3 Length=0.540995 units=km
New Line.102753269$102753180 phases=1 Bus1=102753271.1 Bus2=102753182.1 LineCode=2_CLP_1PH_12KV_1 Length=0.017406 units=km
New Line.102753180$P5587635-1 phases=1 Bus1=102753183.1 Bus2=102753036.1 LineCode=2_CLP_1PH_12KV_1 Length=0.001027 units=km
New Line.GS3067-2$156142766 phases=3 Bus1=30432314.1.2.3 Bus2=156142768.1.2.3 LineCode=1/0_CLP_3PH_12KV_3 Length=0.017311 units=km
New Line.2075093EP1$GS3067-3 phases=3 Bus1=30432322.1.2.3 Bus2=30434655.1.2.3 LineCode=350_AL_3PH_12KV_3 Length=0.056403 units=km
New Line.P5587635-2$102753219 phases=1 Bus1=102753045.1 Bus2=102753222.1 LineCode=2_CLP_1PH_12KV_1 Length=0.001124 units=km
New Line.PME3068-4$156142766 phases=3 Bus1=156142769.1.2.3 Bus2=30432166.1.2.3 LineCode=1/0_CLP_3PH_12KV_3 Length=0.000978 units=km
New Line.102753219$102753244 phases=1 Bus1=102753221.1 Bus2=102753246.1 LineCode=2_CLP_1PH_12KV_1 Length=0.092102 units=km
New Line.PME3068-2$156142793 phases=3 Bus1=30432176.1.2.3 Bus2=156142796.1.2.3 LineCode=1/0_CLP_3PH_12KV_3 Length=0.000592 units=km
New Line.102753244$P5587636-1 phases=1 Bus1=102753247.1 Bus2=102752968.1 LineCode=2_CLP_1PH_12KV_1 Length=0.001227 units=km
New Line.156142793$ND30597101 phases=3 Bus1=156142795.1.2.3 Bus2=30597101.1.2.3 LineCode=1/0_CLP_3PH_12KV_3 Length=0.153017 units=km
New Line.B5312792-2$ND30597101 phases=1 Bus1=30597101.2 Bus2=30433875.2 LineCode=1/0_CLP_1PH_12KV_1 Length=0.002833 units=km
New Line.ND30597101$ND30597066 phases=3 Bus1=30597101.1.2.3 Bus2=30597066.1.2.3 LineCode=1/0_CLP_3PH_12KV_3 Length=0.230447 units=km
New Line.B5171669-2$ND30597066 phases=1 Bus1=30597066.2 Bus2=30434019.2 LineCode=1/0_CLP_1PH_12KV_1 Length=0.130494 units=km
New Line.ND30597066$ND30598077 phases=3 Bus1=30597066.1.2.3 Bus2=30598077.1.2.3 LineCode=1/0_CLP_3PH_12KV_3 Length=0.29501 units=km
New Line.183548255$ND30598077 phases=3 Bus1=30598077.1.2.3 Bus2=183548257.1.2.3 LineCode=1/0_CLP_3PH_12KV_3 Length=0.106445 units=km
New Line.P5176858-1$ND30598077 phases=1 Bus1=30598077.2 Bus2=30434586.2 LineCode=1/0_CLP_1PH_12KV_1 Length=0.093274 units=km
New Line.ND183548194$183548255 phases=3 Bus1=183548258.1.2.3 Bus2=183548194.1.2.3 LineCode=1/0_CLP_3PH_12KV_3 Length=0.004543 units=km
New Line.P5387633-2$B5171669-1 phases=1 Bus1=30434010.2 Bus2=30433947.2 LineCode=1/0_CLP_1PH_12KV_1 Length=0.152118 units=km
New Line.ND183548084$ND183548194 phases=3 Bus1=183548194.1.2.3 Bus2=183548084.1.2.3 LineCode=1/0_CLP_3PH_12KV_3 Length=0.008804 units=km
New Line.ND183548194$183548230 phases=1 Bus1=183548194.1 Bus2=183548233.1 LineCode=1/0_JCN_1PH_12KV_1 Length=0.007612 units=km
New Line.ND30596079$4355384E phases=4 Bus1=30596079.0.1.2.3 Bus2=85306080.0.1.2.3 LineCode=336_ACSR_1PH_336_ACSR_N_12KV_4 Length=0.006256 units=km
New Line.183548203$ND183548084 phases=3 Bus1=183548084.1.2.3 Bus2=183548206.1.2.3 LineCode=2_AL_3PH_12KV_3 Length=0.005705 units=km
New Line.ND183548084$ND30634009 phases=1 Bus1=183548084.1 Bus2=30634009.1 LineCode=1/0_CLP_1PH_12KV_1 Length=0.121092 units=km
New Line.4355383E$69364496 phases=1 Bus1=30432589.1 Bus2=69364498.1 LineCode=2_CLP_1PH_12KV_1 Length=0.019319 units=km
New Line.ND30634009$138584896 phases=1 Bus1=30634009.1 Bus2=138584898.1 LineCode=2_JCN_1PH_12KV_1 Length=0.424649 units=km
New Line.183548230$183548280 phases=1 Bus1=183548232.1 Bus2=183548282.1 LineCode=1/0_JCN_1PH_12KV_1 Length=0.052068 units=km
New Line.P5176813-2$PH010 phases=1 Bus1=30433800.1 Bus2=30433740.1 LineCode=350_AL_1PH_12KV_1 Length=0.137556 units=km
New Line.P5204763-1$ND30634009 phases=1 Bus1=30634009.1 Bus2=30434082.1 LineCode=1/0_CLP_1PH_12KV_1 Length=0.073955 units=km
New Line.4355384E$85306180 phases=1 Bus1=85306085.2 Bus2=85306182.2 LineCode=2_CLP_1PH_12KV_1 Length=0.107973 units=km
New Line.4776482E$183548203 phases=3 Bus1=183548205.1.2.3 Bus2=158590360.1.2.3 LineCode=2_AL_3PH_12KV_3 Length=0.035305 units=km
New Line.69364496$J048A-1P phases=1 Bus1=69364499.1 Bus2=69364034.1 LineCode=2_CLP_1PH_12KV_1 Length=0.00161 units=km
New Line.138584896$138584923 phases=1 Bus1=138584899.1 Bus2=138584926.1 LineCode=2_JCN_1PH_12KV_1 Length=0.018611 units=km
New Line.183548280$P5592594-2 phases=1 Bus1=183548283.1 Bus2=183548132.1 LineCode=1/0_JCN_1PH_12KV_1 Length=0.001037 units=km
New Line.85306180$P5551696-2 phases=1 Bus1=85306183.2 Bus2=85306117.2 LineCode=2_CLP_1PH_12KV_1 Length=0.000919 units=km
New Line.4776483E$4776482E phases=4 Bus1=158590359.0.1.2.3 Bus2=158590329.0.1.2.3 LineCode=4_ACSR_3PH_4_ACSR_N_12KV_4 Length=0.073357 units=km
New Line.P5161500-1$FD77003 phases=1 Bus1=30433712.2 Bus2=30433643.2 LineCode=350_AL_1PH_12KV_1 Length=0.152928 units=km
New Line.306926538$1797015EP1 phases=1 Bus1=30432504.2 Bus2=306926540.2 LineCode=2_CLP_1PH_12KV_1 Length=0.061156 units=km
New Line.138584923$102142410 phases=1 Bus1=138584925.1 Bus2=102142412.1 LineCode=2_JCN_1PH_12KV_1 Length=0.06064 units=km
New Line.P5470280-2$306926538 phases=1 Bus1=306926541.2 Bus2=30432444.2 LineCode=2_CLP_1PH_12KV_1 Length=0.00179 units=km
New Line.4776483E$ND30598537 phases=3 Bus1=158590330.1.2.3 Bus2=30598537.1.2.3 LineCode=2_AL_3PH_12KV_3 Length=0.077758 units=km
New Line.J048A-2P$71912000 phases=1 Bus1=69364050.1 Bus2=71912003.1 LineCode=2_CLP_1PH_12KV_1 Length=0.00228 units=km
New Line.102142410$P5569543-2 phases=1 Bus1=102142413.1 Bus2=102142073.1 LineCode=2_CLP_1PH_12KV_1 Length=0.002011 units=km
New Line.ND30598537$ND153734456 phases=3 Bus1=30598537.1.2.3 Bus2=153734456.1.2.3 LineCode=2_AL_3PH_12KV_3 Length=0.156683 units=km
New Line.ND30598537$P5342724-1 phases=1 Bus1=30598537.3 Bus2=30434226.3 LineCode=2_CLP_1PH_12KV_1 Length=0.024239 units=km
New Line.P5161500-2$30564221 phases=1 Bus1=30433652.2 Bus2=30564223.2 LineCode=350_AL_1PH_12KV_1 Length=0.175519 units=km
New Line.J048A-3P$69364528 phases=1 Bus1=69364042.1 Bus2=69364531.1 LineCode=2_CLP_1PH_12KV_1 Length=0.016863 units=km
New Line.ND153734456$P5358915-1 phases=1 Bus1=153734456.1 Bus2=30434514.1 LineCode=2_AL_1PH_12KV_1 Length=0.007143 units=km
New Line.ND153734456$ND30596619 phases=3 Bus1=153734456.1.2.3 Bus2=30596619.1.2.3 LineCode=2_AL_3PH_12KV_3 Length=0.004271 units=km
New Line.71911988$71912000 phases=1 Bus1=71912002.1 Bus2=71911990.1 LineCode=2_CLP_1PH_12KV_1 Length=0.11455 units=km
New Line.P5504778-2$ND30596619 phases=1 Bus1=30596619.3 Bus2=30432044.3 LineCode=2_AL_1PH_12KV_1 Length=0.15671 units=km
New Line.P5321376-1$ND30596619 phases=1 Bus1=30596619.3 Bus2=30434442.3 LineCode=2_AL_1PH_12KV_1 Length=0.049536 units=km
New Line.30564221$ND30597811 phases=1 Bus1=30564224.2 Bus2=30597811.2 LineCode=350_AL_1PH_12KV_1 Length=0.005779 units=km
New Line.69364528$69364335 phases=1 Bus1=69364530.1 Bus2=69364337.1 LineCode=2_CLP_1PH_12KV_1 Length=0.144286 units=km
New Line.P5569543-1$102142455 phases=1 Bus1=102142064.1 Bus2=102142458.1 LineCode=2_CLP_1PH_12KV_1 Length=0.001961 units=km
New Line.ND108229287$ND30597811 phases=1 Bus1=30597811.2 Bus2=108229287.2 LineCode=2_CLP_1PH_12KV_1 Length=0.006161 units=km
New Line.30564231$ND30597811 phases=1 Bus1=30597811.2 Bus2=30564234.2 LineCode=350_AL_1PH_12KV_1 Length=0.004037 units=km
New Line.71911988$P5544157-2 phases=1 Bus1=71911991.1 Bus2=71911935.1 LineCode=2_CLP_1PH_12KV_1 Length=0.001638 units=km
New Line.ND108229287$108229296 phases=1 Bus1=108229287.2 Bus2=108229299.2 LineCode=2_CLP_1PH_12KV_1 Length=0.008637 units=km
New Line.30564211$ND108229287 phases=1 Bus1=108229287.2 Bus2=30564214.2 LineCode=2_CLP_1PH_12KV_1 Length=0.006161 units=km
New Line.J049A-1P$69364335 phases=1 Bus1=69364338.1 Bus2=69364135.1 LineCode=2_CLP_1PH_12KV_1 Length=0.003376 units=km
New Line.102142455$102142682 phases=1 Bus1=102142457.1 Bus2=102142684.1 LineCode=2_CLP_1PH_12KV_1 Length=0.088981 units=km
New Line.P5152591-2$30564231 phases=1 Bus1=30564233.2 Bus2=30431805.2 LineCode=350_AL_1PH_12KV_1 Length=0.066417 units=km
New Line.89836447$P5321376-2 phases=1 Bus1=30434451.3 Bus2=89836449.3 LineCode=2_AL_1PH_12KV_1 Length=0.132653 units=km
New Line.P5551176-1$108229296 phases=1 Bus1=108229298.2 Bus2=108229215.2 LineCode=2_CLP_1PH_12KV_1 Length=0.065286 units=km
New Line.30564211$108229349 phases=1 Bus1=30564213.2 Bus2=108229351.2 LineCode=2_CLP_1PH_12KV_1 Length=0.22178 units=km
New Line.102142682$ND102142373 phases=1 Bus1=102142685.1 Bus2=102142373.1 LineCode=2_CLP_1PH_12KV_1 Length=0.007347 units=km
New Line.J221A-1P$89836447 phases=1 Bus1=89836450.3 Bus2=89836147.3 LineCode=2_AL_1PH_12KV_1 Length=0.001306 units=km
New Line.ND102142373$102142565 phases=1 Bus1=102142373.1 Bus2=102142568.1 LineCode=2_CLP_1PH_12KV_1 Length=0.005907 units=km
New Line.ND102142373$102142604 phases=1 Bus1=102142373.1 Bus2=102142607.1 LineCode=2_CLP_1PH_12KV_1 Length=0.007834 units=km
New Line.ND102142373$102142643 phases=1 Bus1=102142373.1 Bus2=102142646.1 LineCode=2_CLP_1PH_12KV_1 Length=0.007078 units=km
New Line.P5504728-2$108229349 phases=1 Bus1=108229352.2 Bus2=30431887.2 LineCode=2_CLP_1PH_12KV_1 Length=0.001032 units=km
New Line.J049A-3P$69364393 phases=1 Bus1=69364143.1 Bus2=69364396.1 LineCode=2_CLP_1PH_12KV_1 Length=0.031725 units=km
New Line.102142604$102142490 phases=1 Bus1=102142606.1 Bus2=102142492.1 LineCode=2_CLP_1PH_12KV_1 Length=0.060685 units=km
New Line.102142565$102142515 phases=1 Bus1=102142567.1 Bus2=102142517.1 LineCode=2_CLP_1PH_12KV_1 Length=0.076645 units=km
New Line.102142643$102142540 phases=1 Bus1=102142645.1 Bus2=102142542.1 LineCode=2_CLP_1PH_12KV_1 Length=0.072132 units=km
New Line.J049A-4P$69364555 phases=1 Bus1=69364151.1 Bus2=69364558.1 LineCode=2_CLP_1PH_12KV_1 Length=0.005347 units=km
New Line.4766626E$ND164806267 phases=4 Bus1=164806267.0.1.2.3 Bus2=164806244.0.1.2.3 LineCode=336_ACSR_3PH_336_ACSR_N_12KV_4 Length=0.05841 units=km
New Line.69364393$ND30597038 phases=1 Bus1=69364436.1 Bus2=30597038.1 LineCode=2_CLP_1PH_12KV_1 Length=0.085933 units=km
New Line.J221A-2P$89836422 phases=1 Bus1=89836171.3 Bus2=89836425.3 LineCode=2_CLP_1PH_12KV_1 Length=0.001125 units=km
New Line.102142490$P5569545-1 phases=1 Bus1=102142493.1 Bus2=102142138.1 LineCode=2_CLP_1PH_12KV_1 Length=0.003937 units=km
New Line.102142540$P5569546-2 phases=1 Bus1=102142543.1 Bus2=102142215.1 LineCode=2_CLP_1PH_12KV_1 Length=0.001467 units=km
New Line.102142515$P5569547-2 phases=1 Bus1=102142518.1 Bus2=102142283.1 LineCode=2_CLP_1PH_12KV_1 Length=0.001496 units=km
New Line.ND30597038$240268909 phases=1 Bus1=30597038.1 Bus2=240268911.1 LineCode=2_CLP_1PH_12KV_1 Length=0.075734 units=km
New Line.69364555$30431708 phases=1 Bus1=69364557.1 Bus2=30431710.1 LineCode=2_CLP_1PH_12KV_1 Length=0.069765 units=km
New Line.P5451284-1$ND30597038 phases=1 Bus1=30597038.1 Bus2=30432520.1 LineCode=2_CLP_1PH_12KV_1 Length=0.120483 units=km
New Line.J221A-3P$89836397 phases=1 Bus1=89836155.3 Bus2=89836400.3 LineCode=2_AL_1PH_12KV_1 Length=0.001207 units=km
New Line.ND201492752$4766626E phases=3 Bus1=164806245.1.2.3 Bus2=201492752.1.2.3 LineCode=1000_JCN_3PH_12KV_3 Length=0.615599 units=km
New Line.J221A-4P$89836370 phases=1 Bus1=89836163.3 Bus2=89836373.3 LineCode=2_AL_1PH_12KV_1 Length=0.00133 units=km
New Line.89836422$89836486 phases=1 Bus1=89836424.3 Bus2=89836488.3 LineCode=2_CLP_1PH_12KV_1 Length=0.012971 units=km
New Line.ND201492752$PME7268-1 phases=3 Bus1=201492752.1.2.3 Bus2=216495219.1.2.3 LineCode=1000_JCN_3PH_12KV_3 Length=0.108959 units=km
New Line.240268909$P5466868-1 phases=1 Bus1=240268912.1 Bus2=30431642.1 LineCode=2_CLP_1PH_12KV_1 Length=0.054957 units=km
New Line.30431708$P5466969-2 phases=1 Bus1=30431711.1 Bus2=30431733.1 LineCode=2_CLP_1PH_12KV_1 Length=0.0008 units=km
New Line.GS7269-1$ND201492752 phases=3 Bus1=201492752.1.2.3 Bus2=30498403.1.2.3 LineCode=1000_JCN_3PH_12KV_3 Length=0.010688 units=km
New Line.89836397$ND30596605 phases=1 Bus1=89836399.3 Bus2=30596605.3 LineCode=2_AL_1PH_12KV_1 Length=0.136226 units=km
New Line.89836370$139478152 phases=1 Bus1=89836372.3 Bus2=139478154.3 LineCode=2_AL_1PH_12KV_1 Length=0.199152 units=km
New Line.4151731E$ND164807183 phases=3 Bus1=30498562.1.2.3 Bus2=164807183.1.2.3 LineCode=1000_JCN_3PH_12KV_3 Length=0.425645 units=km
New Line.ND30596605$246639320 phases=1 Bus1=30596605.3 Bus2=246639322.3 LineCode=2_JCN_1PH_12KV_1 Length=0.068826 units=km
New Line.P5466874-2$ND30596605 phases=1 Bus1=30596605.3 Bus2=30435342.3 LineCode=2_AL_1PH_12KV_1 Length=0.015809 units=km
New Line.4384931E$70944061 phases=1 Bus1=30531788.2 Bus2=70944063.2 LineCode=2_CLP_1PH_12KV_1 Length=0.077991 units=km
New Line.89836486$P5550220-1 phases=1 Bus1=89836489.3 Bus2=89836298.3 LineCode=2_CLP_1PH_12KV_1 Length=0.001463 units=km
New Line.ND164807183$4490277 phases=3 Bus1=164807183.1.2.3 Bus2=30498348.1.2.3 LineCode=1000_JCN_3PH_12KV_3 Length=0.172287 units=km
New Line.ND164807183$GS7269-2 phases=3 Bus1=164807183.1.2.3 Bus2=30498395.1.2.3 LineCode=1000_JCN_3PH_12KV_3 Length=0.229476 units=km
New Line.139478152$ND138585022 phases=1 Bus1=139478155.3 Bus2=138585022.3 LineCode=2_AL_1PH_12KV_1 Length=0.004646 units=km
New Line.PME7268-4$234902702 phases=3 Bus1=216495201.1.2.3 Bus2=234902704.1.2.3 LineCode=1/0_JCN_3PH_12KV_3 Length=0.122851 units=km
New Line.246639320$P5362994-A phases=1 Bus1=246639323.3 Bus2=246639151.3 LineCode=1/0_JCN_1PH_12KV_1 Length=0.001811 units=km
New Line.70944061$P5492148-1 phases=1 Bus1=70944064.2 Bus2=70943985.2 LineCode=2_CLP_1PH_12KV_1 Length=0.001969 units=km
New Line.ND138585022$ND138585060 phases=1 Bus1=138585022.3 Bus2=138585060.3 LineCode=2_AL_1PH_12KV_1 Length=0.006638 units=km
New Line.ND201493074$PME7268-3 phases=3 Bus1=216495192.1.2.3 Bus2=201493074.1.2.3 LineCode=2_CLP_3PH_12KV_3 Length=0.025123 units=km
New Line.ND138585022$30375472 phases=1 Bus1=138585022.3 Bus2=30375474.3 LineCode=2_CLP_1PH_12KV_1 Length=0.039084 units=km
New Line.4697134E$PME7268-2 phases=3 Bus1=216495210.1.2.3 Bus2=30562313.1.2.3 LineCode=1000_JCN_3PH_12KV_3 Length=0.025903 units=km
New Line.ND138585060$ND138585043 phases=1 Bus1=138585060.3 Bus2=138585043.3 LineCode=2_AL_1PH_12KV_1 Length=0.006698 units=km
New Line.ND138585060$139478094 phases=1 Bus1=138585060.3 Bus2=139478096.3 LineCode=2_CLP_1PH_12KV_1 Length=0.145684 units=km
New Line.234902702$J653-3P phases=3 Bus1=234902705.1.2.3 Bus2=234902452.1.2.3 LineCode=1/0_JCN_3PH_12KV_3 Length=0.006372 units=km
New Line.ND201493074$237805877 phases=1 Bus1=201493074.3 Bus2=237805879.3 LineCode=2_CLP_1PH_12KV_1 Length=0.210112 units=km
New Line.ND201493074$283585893 phases=1 Bus1=201493074.3 Bus2=283585895.3 LineCode=2_CLP_1PH_12KV_1 Length=0.119428 units=km
New Line.ND201493074$P5367756-2 phases=1 Bus1=201493074.1 Bus2=30562338.1 LineCode=2_CLP_1PH_12KV_1 Length=0.090627 units=km
New Line.ND138585043$138585165 phases=1 Bus1=138585043.3 Bus2=138585167.3 LineCode=2_AL_1PH_12KV_1 Length=0.103439 units=km
New Line.ND138585043$139478178 phases=1 Bus1=138585043.3 Bus2=139478181.3 LineCode=2_AL_1PH_12KV_1 Length=0.004871 units=km
New Line.P5362994-B$246639347 phases=1 Bus1=246639159.3 Bus2=246639350.3 LineCode=1/0_JCN_1PH_12KV_1 Length=0.001819 units=km
New Line.30375472$P5505215-1 phases=1 Bus1=30375475.3 Bus2=30375488.3 LineCode=2_CLP_1PH_12KV_1 Length=0.001051 units=km
New Line.GS7269-4$PME6089-1 phases=3 Bus1=30498419.1.2.3 Bus2=95795076.1.2.3 LineCode=1/0_CLP_3PH_12KV_3 Length=0.551704 units=km
New Line.P5505145-1$139478094 phases=1 Bus1=139478097.3 Bus2=30375580.3 LineCode=2_CLP_1PH_12KV_1 Length=0.000738 units=km
New Line.283585893$P5367754-1 phases=1 Bus1=283585896.3 Bus2=30562473.3 LineCode=2_CLP_1PH_12KV_1 Length=0.001786 units=km
New Line.237805877$P5367760-1 phases=1 Bus1=237805880.3 Bus2=30562689.3 LineCode=2_CLP_1PH_12KV_1 Length=0.002553 units=km
New Line.138585077$139478178 phases=1 Bus1=139478180.3 Bus2=138585079.3 LineCode=2_AL_1PH_12KV_1 Length=0.091055 units=km
New Line.246639347$246639372 phases=1 Bus1=246639349.3 Bus2=246639374.3 LineCode=1/0_JCN_1PH_12KV_1 Length=0.030191 units=km
New Line.138585165$P5428739-1 phases=1 Bus1=138585168.3 Bus2=30434298.3 LineCode=2_AL_1PH_12KV_1 Length=0.001545 units=km
New Line.P5367756-1$P5367757-1 phases=1 Bus1=30562329.1 Bus2=30562401.1 LineCode=2_CLP_1PH_12KV_1 Length=0.15335 units=km
New Line.234902675$J653-2P phases=3 Bus1=234902460.1.2.3 Bus2=234902678.1.2.3 LineCode=1/0_JCN_3PH_12KV_3 Length=0.008569 units=km
New Line.PH571$BS0459-1 phases=3 Bus1=30534429.1.2.3 Bus2=30534445.1.2.3 LineCode=2_CLP_3PH_12KV_3 Length=0.00661 units=km
New Line.PME6089-4$99730822 phases=3 Bus1=95795058.1.2.3 Bus2=99730825.1.2.3 LineCode=2_CLP_3PH_12KV_3 Length=0.001459 units=km
New Line.138585077$138585108 phases=1 Bus1=138585080.3 Bus2=138585111.3 LineCode=2_AL_1PH_12KV_1 Length=0.016853 units=km
New Line.J653-1P$234902650 phases=3 Bus1=234902444.1.2.3 Bus2=234902653.1.2.3 LineCode=1/0_JCN_3PH_12KV_3 Length=0.000996 units=km
New Line.P5367760-2$237805845 phases=1 Bus1=30562698.3 Bus2=237805848.3 LineCode=2_CLP_1PH_12KV_1 Length=0.154769 units=km
New Line.246639372$ND257319819 phases=1 Bus1=246639375.3 Bus2=257319819.3 LineCode=1/0_JCN_1PH_12KV_1 Length=0.005379 units=km
New Line.P5367754-2$283585918 phases=1 Bus1=30562482.3 Bus2=283585921.3 LineCode=2_CLP_1PH_12KV_1 Length=0.109235 units=km
New Line.P5505145-2$30375564 phases=1 Bus1=30375589.3 Bus2=30375567.3 LineCode=2_CLP_1PH_12KV_1 Length=0.000943 units=km
New Line.PME6089-3$95459628 phases=3 Bus1=95795049.1.2.3 Bus2=95459630.1.2.3 LineCode=2_CLP_3PH_12KV_3 Length=0.144998 units=km
New Line.PME6089-2$ND95795318 phases=3 Bus1=95795067.1.2.3 Bus2=95795318.1.2.3 LineCode=2_CLP_3PH_12KV_3 Length=0.00725 units=km
New Line.BS0459-1$ND160798337 phases=3 Bus1=30534446.1.2.3 Bus2=160798337.1.2.3 LineCode=2_CLP_3PH_12KV_3 Length=0.096637 units=km
New Line.216495428$234902675 phases=3 Bus1=234902677.1.2.3 Bus2=216495430.1.2.3 LineCode=1/0_JCN_3PH_12KV_3 Length=0.052148 units=km
New Line.P5367757-2$244161319 phases=1 Bus1=30562410.1 Bus2=244161321.1 LineCode=2_CLP_1PH_12KV_1 Length=0.125125 units=km
New Line.ND257319819$ND246639459 phases=1 Bus1=257319819.3 Bus2=246639459.3 LineCode=1/0_JCN_1PH_12KV_1 Length=0.006568 units=km
New Line.ND257319819$257319902 phases=1 Bus1=257319819.3 Bus2=257319905.3 LineCode=1/0_JCN_1PH_12KV_1 Length=0.008867 units=km
New Line.ND95795318$95795397 phases=3 Bus1=95795318.1.2.3 Bus2=95795399.1.2.3 LineCode=2_CLP_3PH_12KV_3 Length=0.005233 units=km
New Line.ND95795318$95795567 phases=3 Bus1=95795318.1.2.3 Bus2=95795569.1.2.3 LineCode=2_CLP_3PH_12KV_3 Length=0.081785 units=km
New Line.99730822$99730849 phases=3 Bus1=99730824.1.2.3 Bus2=99730851.1.2.3 LineCode=2_CLP_3PH_12KV_3 Length=0.121121 units=km
New Line.138585108$138585140 phases=1 Bus1=138585110.3 Bus2=138585142.3 LineCode=2_AL_1PH_12KV_1 Length=0.167901 units=km
New Line.95459628$P5535742-A phases=3 Bus1=95459631.1.2.3 Bus2=152287229.1.2.3 LineCode=2_CLP_3PH_12KV_3 Length=0.004683 units=km
New Line.ND160798259$ND160798337 phases=1 Bus1=160798337.1 Bus2=160798259.1 LineCode=2_CLP_1PH_12KV_1 Length=0.008347 units=km
New Line.ND160798337$ND160798310 phases=1 Bus1=160798337.2 Bus2=160798310.2 LineCode=2_CLP_1PH_12KV_1 Length=0.00521 units=km
New Line.ND160798337$ND160798411 phases=2 Bus1=160798337.2.3 Bus2=160798411.2.3 LineCode=2_CLP_2PH_12KV_2 Length=0.192746 units=km
New Line.4938132E$229760674 phases=3 Bus1=229760555.1.2.3 Bus2=229760676.1.2.3 LineCode=1/0_JCN_3PH_12KV_3 Length=0.042867 units=km
New Line.234902650$234902623 phases=3 Bus1=234902652.1.2.3 Bus2=234902625.1.2.3 LineCode=1/0_JCN_3PH_12KV_3 Length=0.030317 units=km
New Line.246639397$ND246639459 phases=1 Bus1=246639459.3 Bus2=246639400.3 LineCode=1/0_JCN_1PH_12KV_1 Length=0.008102 units=km
New Line.283585918$283585943 phases=1 Bus1=283585920.3 Bus2=283585945.3 LineCode=2_CLP_1PH_12KV_1 Length=0.082767 units=km
New Line.30375564$30375202 phases=1 Bus1=30375566.3 Bus2=30375204.3 LineCode=2_CLP_1PH_12KV_1 Length=0.149294 units=km
New Line.237805845$P5367762-2 phases=1 Bus1=237805847.3 Bus2=30562770.3 LineCode=2_CLP_1PH_12KV_1 Length=0.147613 units=km
New Line.216495428$P5716467-1 phases=3 Bus1=216495431.1.2.3 Bus2=216495354.1.2.3 LineCode=1/0_JCN_3PH_12KV_3 Length=0.002397 units=km
New Line.257319902$257319929 phases=1 Bus1=257319904.3 Bus2=257319931.3 LineCode=1/0_JCN_1PH_12KV_1 Length=0.032563 units=km
New Line.B5171358-1$ND160798259 phases=1 Bus1=160798259.1 Bus2=30534567.1 LineCode=2_CLP_1PH_12KV_1 Length=0.066914 units=km
New Line.B5171361-2$ND160798310 phases=1 Bus1=160798310.2 Bus2=30560556.2 LineCode=2_CLP_1PH_12KV_1 Length=0.059066 units=km
New Line.B5316226-1$ND160798411 phases=1 Bus1=160798411.3 Bus2=30561123.3 LineCode=2_CLP_1PH_12KV_1 Length=0.129641 units=km
New Line.B5306335-1$ND160798411 phases=1 Bus1=160798411.2 Bus2=30561195.2 LineCode=2_CLP_1PH_12KV_1 Length=0.062029 units=km