! OpenDSS script generated from multiconductor network
Clear

New Circuit.mc_network basekv=12.0 pu=1.000000 angle=0.00 frequency=60.0 phases=3 Mvasc3=143993 Mvasc1=47997.6
~ bus1=-8888882139080.1.2.3

! Line codes
New LineCode.2_AL_2PH_12KV_2 nphases=2 units=km Rmatrix=[ 0.140814 | 0 0.140814 ] Xmatrix=[ 0.029681 | 0 0.029681 ] Cmatrix=[ 0 | 0 0 ]
New LineCode.1/0_CLP_1PH_12KV_1 nphases=1 units=km Rmatrix=[ 0.010431 ] Xmatrix=[ 0.003188 ] Cmatrix=[ 0 ]
New LineCode.2_CLP_1PH_12KV_1 nphases=1 units=km Rmatrix=[ 0.258437 ] Xmatrix=[ 0.054474 ] Cmatrix=[ 0 ]
New LineCode.350_AL_1PH_12KV_1 nphases=1 units=km Rmatrix=[ 0.016986 ] Xmatrix=[ 0.012906 ] Cmatrix=[ 0 ]
New LineCode.1/0_JCN_2PH_12KV_2 nphases=2 units=km Rmatrix=[ 0.318608 | 0 0.318608 ] Xmatrix=[ 0.097382 | 0 0.097382 ] Cmatrix=[ 0 | 0 0 ]
New LineCode.1/0_CLP_2PH_12KV_2 nphases=2 units=km Rmatrix=[ 0.009054 | 0 0.009054 ] Xmatrix=[ 0.002767 | 0 0.002767 ] Cmatrix=[ 0 | 0 0 ]
New LineCode.1/0_JCN_3PH_12KV_3 nphases=3 units=km Rmatrix=[ 0.112005 | 0 0.112005 | 0 0 0.112005 ] Xmatrix=[ 0.034234 | 0 0.034234 | 0 0 0.034234 ] Cmatrix=[ 0 | 0 0 | 0 0 0 ]
New LineCode.2_AL_1PH_12KV_1 nphases=1 units=km Rmatrix=[ 0.120139 ] Xmatrix=[ 0.025323 ] Cmatrix=[ 0 ]
New LineCode.1/0_CLP_3PH_12KV_3 nphases=3 units=km Rmatrix=[ 0.001331 | 0 0.001331 | 0 0 0.001331 ] Xmatrix=[ 0.000407 | 0 0.000407 | 0 0 0.000407 ] Cmatrix=[ 0 | 0 0 | 0 0 0 ]
New LineCode.1000_CLP_3PH_12KV_3 nphases=3 units=km Rmatrix=[ 0.001492 | 0 0.001492 | 0 0 0.001492 ] Xmatrix=[ 0.002259 | 0 0.002259 | 0 0 0.002259 ] Cmatrix=[ 0 | 0 0 | 0 0 0 ]
New LineCode.2_CLP_2PH_12KV_2 nphases=2 units=km Rmatrix=[ 0.032937 | 0 0.032937 ] Xmatrix=[ 0.006943 | 0 0.006943 ] Cmatrix=[ 0 | 0 0 ]
New LineCode.350_CLP_3PH_12KV_3 nphases=3 units=km Rmatrix=[ 0.002309 | 0 0.002309 | 0 0 0.002309 ] Xmatrix=[ 0.001754 | 0 0.001754 | 0 0 0.001754 ] Cmatrix=[ 0 | 0 0 | 0 0 0 ]
New LineCode.2_CLP_3PH_12KV_3 nphases=3 units=km Rmatrix=[ 0.002138 | 0 0.002138 | 0 0 0.002138 ] Xmatrix=[ 0.000451 | 0 0.000451 | 0 0 0.000451 ] Cmatrix=[ 0 | 0 0 | 0 0 0 ]
New LineCode.1000_JCN_3PH_12KV_3 nphases=3 units=km Rmatrix=[ 0.055253 | 0 0.055253 | 0 0 0.055253 ] Xmatrix=[ 0.083637 | 0 0.083637 | 0 0 0.083637 ] Cmatrix=[ 0 | 0 0 | 0 0 0 ]
New LineCode.750_CLP_3PH_12KV_3 nphases=3 units=km Rmatrix=[ 0.049615 | 0 0.049615 | 0 0 0.049615 ] Xmatrix=[ 0.060934 | 0 0.060934 | 0 0 0.060934 ] Cmatrix=[ 0 | 0 0 | 0 0 0 ]
New LineCode.2_ACSR_3PH_2_ACSR_N_12KV_4 nphases=4 units=km Rmatrix=[ 0.003639 | 0 0.003639 | 0 0 0.003639 | 0 0 0 0.003639 ] Xmatrix=[ 0.001763 | 0 0.001763 | 0 0 0.001763 | 0 0 0 0.001763 ] Cmatrix=[ 0 | 0 0 | 0 0 0 | 0 0 0 0 ]
New LineCode.336_ACSR_1PH_336_ACSR_N_12KV_3_N nphases=3 units=km Rmatrix=[ 0.001887 | 0 0.001887 | 0 0 0.001887 ] Xmatrix=[ 0.003763 | 0 0.003763 | 0 0 0.003763 ] Cmatrix=[ 0 | 0 0 | 0 0 0 ]
New LineCode.653_ACSR_3PH_653_ACSR_N_12KV_4 nphases=4 units=km Rmatrix=[ 0.019921 | 0 0.019921 | 0 0 0.019921 | 0 0 0 0.019921 ] Xmatrix=[ 0.067731 | 0 0.067731 | 0 0 0.067731 | 0 0 0 0.067731 ] Cmatrix=[ 0 | 0 0 | 0 0 0 | 0 0 0 0 ]
New LineCode.6_CU_3PH_6_CU_N_12KV_4 nphases=4 units=km Rmatrix=[ 0.204758 | 0 0.204758 | 0 0 0.204758 | 0 0 0 0.204758 ] Xmatrix=[ 0.066127 | 0 0.066127 | 0 0 0.066127 | 0 0 0 0.066127 ] Cmatrix=[ 0 | 0 0 | 0 0 0 | 0 0 0 0 ]
New LineCode.2_ACSR_3PH_12KV_3 nphases=3 units=km Rmatrix=[ 0.146704 | 0 0.146704 | 0 0 0.146704 ] Xmatrix=[ 0.078869 | 0 0.078869 | 0 0 0.078869 ] Cmatrix=[ 0 | 0 0 | 0 0 0 ]
New LineCode.336_ACSR_3PH_336_ACSR_N_12KV_4 nphases=4 units=km Rmatrix=[ 0.02296 | 0 0.02296 | 0 0 0.02296 | 0 0 0 0.02296 ] Xmatrix=[ 0.045788 | 0 0.045788 | 0 0 0.045788 | 0 0 0 0.045788 ] Cmatrix=[ 0 | 0 0 | 0 0 0 | 0 0 0 0 ]
New LineCode.4_ACSR_2PH_12KV_2 nphases=2 units=km Rmatrix=[ 0.153761 | 0 0.153761 ] Xmatrix=[ 0.056421 | 0 0.056421 ] Cmatrix=[ 0 | 0 0 ]
New LineCode.1/0_ACSR_2PH_12KV_2 nphases=2 units=km Rmatrix=[ 0.064017 | 0 0.064017 ] Xmatrix=[ 0.05097 | 0 0.05097 ] Cmatrix=[ 0 | 0 0 ]
New LineCode.4_ACSR_3PH_4_ACSR_N_12KV_4 nphases=4 units=km Rmatrix=[ 0.045186 | 0 0.045186 | 0 0 0.045186 | 0 0 0 0.045186 ] Xmatrix=[ 0.015198 | 0 0.015198 | 0 0 0.015198 | 0 0 0 0.015198 ] Cmatrix=[ 0 | 0 0 | 0 0 0 | 0 0 0 0 ]
New LineCode.4_ACSR_3PH_12KV_3 nphases=3 units=km Rmatrix=[ 0.1541 | 0 0.1541 | 0 0 0.1541 ] Xmatrix=[ 0.056546 | 0 0.056546 | 0 0 0.056546 ] Cmatrix=[ 0 | 0 0 | 0 0 0 ]
New LineCode.1/0_ACSR_3PH_1/0_ACSR_N_12KV_4 nphases=4 units=km Rmatrix=[ 0.019243 | 0 0.019243 | 0 0 0.019243 | 0 0 0 0.019243 ] Xmatrix=[ 0.013906 | 0 0.013906 | 0 0 0.013906 | 0 0 0 0.013906 ] Cmatrix=[ 0 | 0 0 | 0 0 0 | 0 0 0 0 ]
New LineCode.1/0_ACSR_3PH_12KV_3 nphases=3 units=km Rmatrix=[ 0.00293 | 0 0.00293 | 0 0 0.00293 ] Xmatrix=[ 0.002333 | 0 0.002333 | 0 0 0.002333 ] Cmatrix=[ 0 | 0 0 | 0 0 0 ]
New LineCode.4_CU_3PH_12KV_3 nphases=3 units=km Rmatrix=[ 0.06113 | 0 0.06113 | 0 0 0.06113 ] Xmatrix=[ 0.033316 | 0 0.033316 | 0 0 0.033316 ] Cmatrix=[ 0 | 0 0 | 0 0 0 ]
New LineCode.336_ACSR_3PH_12KV_3 nphases=3 units=km Rmatrix=[ 0.000243 | 0 0.000243 | 0 0 0.000243 ] Xmatrix=[ 0.000544 | 0 0.000544 | 0 0 0.000544 ] Cmatrix=[ 0 | 0 0 | 0 0 0 ]
New LineCode.UNK_UNK_2PH_12KV_2 nphases=2 units=km Rmatrix=[ 0.00246 | 0 0.00246 ] Xmatrix=[ 0.001322 | 0 0.001322 ] Cmatrix=[ 0 | 0 0 ]
New LineCode.653_ACSR_2PH_653_ACSR_N_12KV_3_N nphases=3 units=km Rmatrix=[ 0.000567 | 0 0.000567 | 0 0 0.000567 ] Xmatrix=[ 0.001927 | 0 0.001927 | 0 0 0.001927 ] Cmatrix=[ 0 | 0 0 | 0 0 0 ]
New LineCode.653_ATW_3PH_653_ATW_N_12KV_4 nphases=4 units=km Rmatrix=[ 1e-05 | 0 1e-05 | 0 0 1e-05 | 0 0 0 1e-05 ] Xmatrix=[ 1e-05 | 0 1e-05 | 0 0 1e-05 | 0 0 0 1e-05 ] Cmatrix=[ 0 | 0 0 | 0 0 0 | 0 0 0 0 ]
New LineCode.653_ATW_3PH_653_ATW_N_12KV_3 nphases=3 units=km Rmatrix=[ 1e-05 | 0 1e-05 | 0 0 1e-05 ] Xmatrix=[ 1e-05 | 0 1e-05 | 0 0 1e-05 ] Cmatrix=[ 0 | 0 0 | 0 0 0 ]
New LineCode.500_EPR_3PH_12KV_3 nphases=3 units=km Rmatrix=[ 1e-05 | 0 1e-05 | 0 0 1e-05 ] Xmatrix=[ 1e-05 | 0 1e-05 | 0 0 1e-05 ] Cmatrix=[ 0 | 0 0 | 0 0 0 ]
New LineCode.6_CU_3PH_12KV_3 nphases=3 units=km Rmatrix=[ 0.004705 | 0 0.004705 | 0 0 0.004705 ] Xmatrix=[ 0.001668 | 0 0.001668 | 0 0 0.001668 ] Cmatrix=[ 0 | 0 0 | 0 0 0 ]
New LineCode.2_ACSR_2PH_12KV_2 nphases=2 units=km Rmatrix=[ 0.006694 | 0 0.006694 ] Xmatrix=[ 0.003599 | 0 0.003599 ] Cmatrix=[ 0 | 0 0 ]
New LineCode.1/0_ATW_3PH_1/0_ATW_N_12KV_4 nphases=4 units=km Rmatrix=[ 1e-05 | 0 1e-05 | 0 0 1e-05 | 0 0 0 1e-05 ] Xmatrix=[ 1e-05 | 0 1e-05 | 0 0 1e-05 | 0 0 0 1e-05 ] Cmatrix=[ 0 | 0 0 | 0 0 0 | 0 0 0 0 ]
New LineCode.1/0_ATW_2PH_12KV_2 nphases=2 units=km Rmatrix=[ 1e-05 | 0 1e-05 ] Xmatrix=[ 1e-05 | 0 1e-05 ] Cmatrix=[ 0 | 0 0 ]
New LineCode.1/0_ATW_3PH_12KV_3 nphases=3 units=km Rmatrix=[ 1e-05 | 0 1e-05 | 0 0 1e-05 ] Xmatrix=[ 1e-05 | 0 1e-05 | 0 0 1e-05 ] Cmatrix=[ 0 | 0 0 | 0 0 0 ]
New LineCode.750_AL_1PH_12KV_1 nphases=1 units=km Rmatrix=[ 0.02445 ] Xmatrix=[ 0.030027 ] Cmatrix=[ 0 ]
New LineCode.653_ACSR_3PH_653_ACSR_N_12KV_3 nphases=3 units=km Rmatrix=[ 0.019921 | 0 0.019921 | 0 0 0.019921 ] Xmatrix=[ 0.067731 | 0 0.067731 | 0 0 0.067731 ] Cmatrix=[ 0 | 0 0 | 0 0 0 ]
New LineCode.2_JCN_3PH_12KV_3 nphases=3 units=km Rmatrix=[ 0.358454 | 0 0.358454 | 0 0 0.358454 ] Xmatrix=[ 0.075555 | 0 0.075555 | 0 0 0.075555 ] Cmatrix=[ 0 | 0 0 | 0 0 0 ]
New LineCode.350_AL_3PH_12KV_3 nphases=3 units=km Rmatrix=[ 0.023833 | 0 0.023833 | 0 0 0.023833 ] Xmatrix=[ 0.018108 | 0 0.018108 | 0 0 0.018108 ] Cmatrix=[ 0 | 0 0 | 0 0 0 ]
New LineCode.2_JCN_2PH_12KV_2 nphases=2 units=km Rmatrix=[ 0.000411 | 0 0.000411 ] Xmatrix=[ 8.7e-05 | 0 8.7e-05 ] Cmatrix=[ 0 | 0 0 ]

! Lines
New Line.4058468E$89795981 phases=2 Bus1=89795898.1.3 Bus2=89795983.1.3 LineCode=2_AL_2PH_12KV_2 Length=0.125894 units=km
New Line.B5316271-2$ND170742870 phases=1 Bus1=170742870.1 Bus2=46276201.1 LineCode=1/0_CLP_1PH_12KV_1 Length=0.07855 units=km
New Line.B5320955-2$B5320956-1 phases=1 Bus1=46294304.3 Bus2=46294223.3 LineCode=2_CLP_1PH_12KV_1 Length=0.098904 units=km
New Line.B5314934-1$B5314933-2 phases=1 Bus1=46294583.2 Bus2=46294520.2 LineCode=2_CLP_1PH_12KV_1 Length=0.115474 units=km
New Line.B5321122-2$B5320954-1 phases=1 Bus1=46294367.3 Bus2=46294664.3 LineCode=2_CLP_1PH_12KV_1 Length=0.069825 units=km
New Line.B5343549-1$ND46349470 phases=1 Bus1=46349470.2 Bus2=46297616.2 LineCode=2_CLP_1PH_12KV_1 Length=0.101015 units=km
New Line.B5343541-1$ND46349470 phases=1 Bus1=46349470.1 Bus2=46297688.1 LineCode=2_CLP_1PH_12KV_1 Length=0.097365 units=km
New Line.ND46350307$ND170742870 phases=1 Bus1=170742870.1 Bus2=46350307.1 LineCode=1/0_CLP_1PH_12KV_1 Length=0.067382 units=km
New Line.69093973$69094000 phases=1 Bus1=69093975.2 Bus2=69094002.2 LineCode=2_CLP_1PH_12KV_1 Length=0.132566 units=km
New Line.B5312643-2$ND46350307 phases=1 Bus1=46350307.1 Bus2=46275719.1 LineCode=2_CLP_1PH_12KV_1 Length=0.039505 units=km
New Line.B5312641-1$ND46350307 phases=1 Bus1=46350307.1 Bus2=46275782.1 LineCode=1/0_CLP_1PH_12KV_1 Length=0.065179 units=km
New Line.B5321120-2$B5321119-1 phases=1 Bus1=46293935.1 Bus2=46294016.1 LineCode=2_CLP_1PH_12KV_1 Length=0.107106 units=km
New Line.B5311958-1$PME9291-3 phases=1 Bus1=218971337.3 Bus2=46296026.3 LineCode=350_AL_1PH_12KV_1 Length=0.23958 units=km
New Line.B5171582-1$PME9291-1 phases=1 Bus1=218971346.1 Bus2=46296098.1 LineCode=350_AL_1PH_12KV_1 Length=0.064109 units=km
New Line.69094258$69094285 phases=1 Bus1=69094260.1 Bus2=69094287.1 LineCode=2_CLP_1PH_12KV_1 Length=0.145681 units=km
New Line.172930995$164139269 phases=2 Bus1=164139271.2.3 Bus2=172930997.2.3 LineCode=1/0_JCN_2PH_12KV_2 Length=0.22744 units=km
New Line.89795981$P5540841 phases=2 Bus1=89795984.1.3 Bus2=89795955.1.3 LineCode=2_AL_2PH_12KV_2 Length=0.004451 units=km
New Line.PH471$BS2650-1 phases=2 Bus1=46273518.1.3 Bus2=46273535.1.3 LineCode=1/0_CLP_2PH_12KV_2 Length=0.025598 units=km
New Line.P5567229-2$102910413 phases=1 Bus1=102910416.2 Bus2=102910258.2 LineCode=2_CLP_1PH_12KV_1 Length=0.002336 units=km
New Line.243472354$BS2547-R phases=3 Bus1=46245527.1.2.3 Bus2=243472356.1.2.3 LineCode=1/0_JCN_3PH_12KV_3 Length=0.179301 units=km
New Line.46244879$180972736 phases=2 Bus1=180972738.2.3 Bus2=46244881.2.3 LineCode=1/0_JCN_2PH_12KV_2 Length=0.091508 units=km
New Line.B5136170-2$B5136169-1 phases=1 Bus1=46296627.2 Bus2=46296996.2 LineCode=350_AL_1PH_12KV_1 Length=0.06537 units=km
New Line.PH281_1$ND46349653 phases=1 Bus1=46297069.2 Bus2=46349653.2 LineCode=350_AL_1PH_12KV_1 Length=0.092481 units=km
New Line.B5328348-1$ND46350352 phases=1 Bus1=46295292.1 Bus2=46350352.1 LineCode=2_CLP_1PH_12KV_1 Length=0.03543 units=km
New Line.PH281$ND46350581 phases=1 Bus1=46297056.2 Bus2=46350581.2 LineCode=2_AL_1PH_12KV_1 Length=0.049013 units=km
New Line.69094000$P5533414-2 phases=1 Bus1=69094003.2 Bus2=69092335.2 LineCode=2_CLP_1PH_12KV_1 Length=0.001785 units=km
New Line.B5328350-1$ND46350352 phases=1 Bus1=46350352.1 Bus2=46295364.1 LineCode=2_CLP_1PH_12KV_1 Length=0.073446 units=km
New Line.B5342368-1$ND46350581 phases=1 Bus1=46350581.2 Bus2=46296339.2 LineCode=2_AL_1PH_12KV_1 Length=0.079581 units=km
New Line.B5342366-2$ND46350581 phases=1 Bus1=46350581.2 Bus2=46296420.2 LineCode=2_AL_1PH_12KV_1 Length=0.05075 units=km
New Line.B5342362-1$ND46349653 phases=1 Bus1=46349653.2 Bus2=46296699.2 LineCode=350_AL_1PH_12KV_1 Length=0.056104 units=km
New Line.B5342360-2$ND46349653 phases=1 Bus1=46349653.2 Bus2=46296852.2 LineCode=350_AL_1PH_12KV_1 Length=0.0709 units=km
New Line.B5343541-2$B5343538-1 phases=1 Bus1=46297697.1 Bus2=46297256.1 LineCode=2_CLP_1PH_12KV_1 Length=0.1241 units=km
New Line.B5343549-2$B5343550-1 phases=1 Bus1=46297625.2 Bus2=46297472.2 LineCode=2_CLP_1PH_12KV_1 Length=0.154492 units=km
New Line.RCS6335-2$ND106355545 phases=3 Bus1=106355222.1.2.3 Bus2=106355545.1.2.3 LineCode=1/0_CLP_3PH_12KV_3 Length=0.012448 units=km
New Line.P5543576-1$172930995 phases=2 Bus1=172930998.2.3 Bus2=172930946.2.3 LineCode=1/0_JCN_2PH_12KV_2 Length=0.001614 units=km
New Line.ND106355545$106355479 phases=2 Bus1=106355545.1.2 Bus2=106355481.1.2 LineCode=1/0_CLP_2PH_12KV_2 Length=0.018949 units=km
New Line.RCS6335-3$0007479 phases=3 Bus1=106355238.1.2.3 Bus2=106355511.1.2.3 LineCode=1/0_CLP_3PH_12KV_3 Length=0.007055 units=km
New Line.BS2650-1$P5388062-2 phases=2 Bus1=46273534.1.3 Bus2=46273665.1.3 LineCode=1/0_CLP_2PH_12KV_2 Length=0.069044 units=km
New Line.ND46350352$P5362385-2 phases=1 Bus1=46350352.1 Bus2=46312145.1 LineCode=2_CLP_1PH_12KV_1 Length=0.158173 units=km
New Line.69094285$P5534686-2 phases=1 Bus1=69094288.1 Bus2=69092199.1 LineCode=2_CLP_1PH_12KV_1 Length=0.000828 units=km
New Line.243472381$243472354 phases=3 Bus1=243472357.1.2.3 Bus2=243472384.1.2.3 LineCode=1/0_JCN_3PH_12KV_3 Length=0.017144 units=km
New Line.P5388335-2$46244879 phases=2 Bus1=46244882.2.3 Bus2=46244904.2.3 LineCode=1/0_CLP_2PH_12KV_2 Length=0.002098 units=km
New Line.B5312642-1$B5312641-2 phases=1 Bus1=46275791.1 Bus2=46275854.1 LineCode=1/0_CLP_1PH_12KV_1 Length=0.128475 units=km
New Line.RCS6335-4$GS5507-3 phases=3 Bus1=106355246.1.2.3 Bus2=73375905.1.2.3 LineCode=1000_CLP_3PH_12KV_3 Length=0.288677 units=km
New Line.106355479$P5549524-2 phases=2 Bus1=106355482.1.2 Bus2=106355426.1.2 LineCode=1/0_CLP_2PH_12KV_2 Length=0.00104 units=km
New Line.P5388062-1$P5388063-2 phases=2 Bus1=46273656.1.3 Bus2=46273593.1.3 LineCode=1/0_CLP_2PH_12KV_2 Length=0.103984 units=km
New Line.GS5507-1$ND73376024 phases=3 Bus1=73375889.1.2.3 Bus2=73376024.1.2.3 LineCode=1000_CLP_3PH_12KV_3 Length=0.009537 units=km
New Line.ND73376024$ND69675046 phases=3 Bus1=73376024.1.2.3 Bus2=69675046.1.2.3 LineCode=1000_CLP_3PH_12KV_3 Length=0.162603 units=km
New Line.ND73376024$V5507923 phases=1 Bus1=73376024.2 Bus2=73376014.2 LineCode=2_CLP_1PH_12KV_1 Length=0.043689 units=km
New Line.GS5494-4$ND69675046 phases=3 Bus1=69675046.1.2.3 Bus2=69674582.1.2.3 LineCode=1000_CLP_3PH_12KV_3 Length=0.189477 units=km
New Line.ND69675046$J924A-3P phases=2 Bus1=69675046.1.3 Bus2=69674959.1.3 LineCode=2_CLP_2PH_12KV_2 Length=0.010901 units=km
New Line.GS5494-3$ND69093383 phases=3 Bus1=69674574.1.2.3 Bus2=69093383.1.2.3 LineCode=350_CLP_3PH_12KV_3 Length=0.01044 units=km
New Line.J924A-1P$PMS4055-1 phases=2 Bus1=69674951.1.3 Bus2=46312483.1.3 LineCode=2_CLP_2PH_12KV_2 Length=0.055425 units=km
New Line.ND69093383$69094312 phases=3 Bus1=69093383.1.2.3 Bus2=69094314.1.2.3 LineCode=2_CLP_3PH_12KV_3 Length=0.160699 units=km
New Line.ND69093383$1667747E phases=3 Bus1=69093383.1.2.3 Bus2=69674785.1.2.3 LineCode=350_CLP_3PH_12KV_3 Length=0.09302 units=km
New Line.GS5494-2$ND90399260 phases=3 Bus1=69674558.1.2.3 Bus2=90399260.1.2.3 LineCode=1000_JCN_3PH_12KV_3 Length=0.017214 units=km
New Line.GS7778-3$ND90399260 phases=3 Bus1=90399260.1.2.3 Bus2=175040720.1.2.3 LineCode=1000_JCN_3PH_12KV_3 Length=0.386435 units=km
New Line.ND90399260$V5507924 phases=1 Bus1=90399260.1 Bus2=69093401.1 LineCode=2_CLP_1PH_12KV_1 Length=0.000804 units=km
New Line.ND69674936$GS5494-1 phases=3 Bus1=69674566.1.2.3 Bus2=69674936.1.2.3 LineCode=750_CLP_3PH_12KV_3 Length=0.002079 units=km
New Line.PMS4055-1$ND46351338 phases=2 Bus1=46312484.1.3 Bus2=46351338.1.3 LineCode=2_CLP_2PH_12KV_2 Length=0.008669 units=km
New Line.69094312$PME5349-4 phases=3 Bus1=69094315.1.2.3 Bus2=69093255.1.2.3 LineCode=2_CLP_3PH_12KV_3 Length=0.001869 units=km
New Line.ND69674936$ND69674908 phases=3 Bus1=69674936.1.2.3 Bus2=69674908.1.2.3 LineCode=750_CLP_3PH_12KV_3 Length=0.383075 units=km
New Line.B5172066-2$ND46351338 phases=2 Bus1=46351338.1.3 Bus2=46244399.1.3 LineCode=2_CLP_2PH_12KV_2 Length=0.146819 units=km
New Line.B5177224-1$ND46351338 phases=2 Bus1=46351338.1.3 Bus2=46244534.1.3 LineCode=2_CLP_2PH_12KV_2 Length=0.087976 units=km
New Line.4415347E$ND69674908 phases=3 Bus1=69674908.1.2.3 Bus2=69674675.1.2.3 LineCode=750_CLP_3PH_12KV_3 Length=0.036889 units=km
New Line.ND69674908$V5507926 phases=1 Bus1=69674908.3 Bus2=69674898.3 LineCode=2_CLP_1PH_12KV_1 Length=0.00533 units=km
New Line.GS7778-2$175041156 phases=3 Bus1=175040711.1.2.3 Bus2=175041158.1.2.3 LineCode=1/0_JCN_3PH_12KV_3 Length=0.068487 units=km
New Line.PME5349-2$69094393 phases=1 Bus1=69093265.2 Bus2=69094396.2 LineCode=2_CLP_1PH_12KV_1 Length=0.003542 units=km
New Line.B5177224-2$105031619 phases=2 Bus1=46244543.1.3 Bus2=105031621.1.3 LineCode=2_CLP_2PH_12KV_2 Length=0.202258 units=km
New Line.GS7789-3$GS7778-1 phases=3 Bus1=175040702.1.2.3 Bus2=183431185.1.2.3 LineCode=1000_JCN_3PH_12KV_3 Length=0.654647 units=km
New Line.B5321121-2$B5321120-1 phases=1 Bus1=46294007.1 Bus2=46294088.1 LineCode=2_CLP_1PH_12KV_1 Length=0.062152 units=km
New Line.B5311959-1$B5311958-2 phases=1 Bus1=46296035.3 Bus2=46295954.3 LineCode=350_AL_1PH_12KV_1 Length=0.077982 units=km
New Line.PME5349-3$69094339 phases=1 Bus1=69093274.1 Bus2=69094342.1 LineCode=2_CLP_1PH_12KV_1 Length=0.001165 units=km
New Line.PME5349-1$69094366 phases=1 Bus1=69093283.3 Bus2=69094369.3 LineCode=2_CLP_1PH_12KV_1 Length=0.001012 units=km
New Line.175041156$J842A-1P phases=3 Bus1=175041159.1.2.3 Bus2=175040794.1.2.3 LineCode=1/0_JCN_3PH_12KV_3 Length=0.001635 units=km
New Line.69094393$69093838 phases=1 Bus1=69094395.2 Bus2=69093840.2 LineCode=2_CLP_1PH_12KV_1 Length=0.231053 units=km
New Line.105031619$P5549427-1 phases=2 Bus1=105031622.1.3 Bus2=105031552.1.3 LineCode=2_CLP_2PH_12KV_2 Length=0.001476 units=km
New Line.P5567229-1$102910451 phases=1 Bus1=102910249.2 Bus2=102910454.2 LineCode=2_CLP_1PH_12KV_1 Length=0.00201 units=km
New Line.69094366$ND69093452 phases=1 Bus1=69094368.3 Bus2=69093452.3 LineCode=2_CLP_1PH_12KV_1 Length=0.059903 units=km
New Line.69094339$69094042 phases=1 Bus1=69094341.1 Bus2=69094044.1 LineCode=2_CLP_1PH_12KV_1 Length=0.223504 units=km
New Line.69093838$P5545681-2 phases=1 Bus1=69093841.2 Bus2=69092477.2 LineCode=2_CLP_1PH_12KV_1 Length=0.002358 units=km
New Line.ND69093452$69093649 phases=1 Bus1=69093452.3 Bus2=69093651.3 LineCode=2_CLP_1PH_12KV_1 Length=0.119225 units=km
New Line.ND69093452$69093676 phases=1 Bus1=69093452.3 Bus2=69093678.3 LineCode=2_CLP_1PH_12KV_1 Length=0.049584 units=km
New Line.2014388E$243472381 phases=3 Bus1=243472383.1.2.3 Bus2=46245647.1.2.3 LineCode=1/0_JCN_3PH_12KV_3 Length=0.177503 units=km
New Line.B5342367-2$B5342366-1 phases=1 Bus1=46296411.2 Bus2=46296492.2 LineCode=2_AL_1PH_12KV_1 Length=0.060346 units=km
New Line.B5342369-2$B5342368-2 phases=1 Bus1=46296348.2 Bus2=46296564.2 LineCode=2_CLP_1PH_12KV_1 Length=0.076679 units=km
New Line.B5342363-1$B5342362-2 phases=1 Bus1=46296708.2 Bus2=46296771.2 LineCode=350_AL_1PH_12KV_1 Length=0.104264 units=km
New Line.B5343550-2$B5343536-2 phases=1 Bus1=46297481.2 Bus2=46297409.2 LineCode=2_CLP_1PH_12KV_1 Length=0.096356 units=km
New Line.B5343537-1$B5343538-2 phases=1 Bus1=46297265.1 Bus2=46297544.1 LineCode=2_CLP_1PH_12KV_1 Length=0.151523 units=km
New Line.P5362386-2$P5362385-1 phases=1 Bus1=46312136.1 Bus2=46312217.1 LineCode=2_CLP_1PH_12KV_1 Length=0.091119 units=km
New Line.102910451$102910476 phases=1 Bus1=102910453.2 Bus2=102910478.2 LineCode=2_CLP_1PH_12KV_1 Length=0.088409 units=km
New Line.B5174844-2$PH045 phases=1 Bus1=46245808.2 Bus2=46245833.2 LineCode=2_AL_1PH_12KV_1 Length=0.120568 units=km
New Line.P5388335-1$46312382 phases=1 Bus1=46244895.2 Bus2=46312384.2 LineCode=1/0_CLP_1PH_12KV_1 Length=0.014749 units=km
New Line.B5311959-2$ND46349791 phases=1 Bus1=46295963.3 Bus2=46349791.3 LineCode=350_AL_1PH_12KV_1 Length=0.069711 units=km
New Line.B5343636-1$ND46349791 phases=1 Bus1=46349791.3 Bus2=46295882.3 LineCode=350_AL_1PH_12KV_1 Length=0.024046 units=km
New Line.ND46349791$B5311962-1 phases=1 Bus1=46349791.3 Bus2=46296242.3 LineCode=350_AL_1PH_12KV_1 Length=0.101801 units=km
New Line.102910476$P5567230-2 phases=1 Bus1=102910479.2 Bus2=102910326.2 LineCode=2_CLP_1PH_12KV_1 Length=0.001325 units=km
New Line.B5342364-1$B5342363-2 phases=1 Bus1=46296780.2 Bus2=46296915.2 LineCode=350_AL_1PH_12KV_1 Length=0.058814 units=km
New Line.B5343536-1$B5343539-1 phases=1 Bus1=46297400.2 Bus2=46297184.2 LineCode=2_CLP_1PH_12KV_1 Length=0.225358 units=km
New Line.46312382$P5492127-2 phases=1 Bus1=46312385.2 Bus2=46312407.2 LineCode=1/0_CLP_1PH_12KV_1 Length=0.000753 units=km
New Line.B5311963-1$B5343636-2 phases=1 Bus1=46295891.3 Bus2=46296170.3 LineCode=350_AL_1PH_12KV_1 Length=0.095751 units=km
New Line.B5343540-1$B5343539-2 phases=1 Bus1=46297193.2 Bus2=46297328.2 LineCode=2_CLP_1PH_12KV_1 Length=0.151896 units=km
New Line.4232670E$ND86490047 phases=3 Bus1=70179624.1.2.3 Bus2=86490047.1.2.3 LineCode=2_CLP_3PH_12KV_3 Length=0.054194 units=km
New Line.0207641$GS7789-2 phases=3 Bus1=183431177.1.2.3 Bus2=183431269.1.2.3 LineCode=1/0_JCN_3PH_12KV_3 Length=0.034611 units=km
New Line.69094042$P5534683-2 phases=1 Bus1=69094045.1 Bus2=69093117.1 LineCode=2_CLP_1PH_12KV_1 Length=0.00088 units=km
New Line.ND86490047$70179559 phases=3 Bus1=86490047.1.2.3 Bus2=70179561.1.2.3 LineCode=2_CLP_3PH_12KV_3 Length=0.021944 units=km
New Line.ND86490047$ND86490071 phases=3 Bus1=86490047.1.2.3 Bus2=86490071.1.2.3 LineCode=2_CLP_3PH_12KV_3 Length=0.04387 units=km
New Line.J842A-2P$180972335 phases=2 Bus1=175040818.2.3 Bus2=180972338.2.3 LineCode=1/0_JCN_2PH_12KV_2 Length=0.001366 units=km
New Line.GS7789-1$ND183431334 phases=3 Bus1=183431169.1.2.3 Bus2=183431334.1.2.3 LineCode=1000_JCN_3PH_12KV_3 Length=0.016807 units=km
New Line.69093676$P5534681-2 phases=1 Bus1=69093679.3 Bus2=69092755.3 LineCode=2_CLP_1PH_12KV_1 Length=0.001935 units=km
New Line.ND46349951$PH281 phases=4 Bus1=46349951.0.1.2.3 Bus2=46297055.0.1.2.3 LineCode=2_ACSR_3PH_2_ACSR_N_12KV_4 Length=0.144545 units=km
New Line.ND46349951$PH281_1 phases=3 Bus1=46349951.0.2.3 Bus2=46297068.0.2.3 LineCode=336_ACSR_1PH_336_ACSR_N_12KV_3_N Length=0.144545 units=km
New Line.4060077E$RCS7621 phases=4 Bus1=46273768.0.1.2.3 Bus2=46313720.0.1.2.3 LineCode=653_ACSR_3PH_653_ACSR_N_12KV_4 Length=0.083454 units=km
New Line.16469S$ND46314642 phases=4 Bus1=46274105.0.1.2.3 Bus2=46314642.0.1.2.3 LineCode=6_CU_3PH_6_CU_N_12KV_4 Length=0.051476 units=km
New Line.4002038E$ND46314925 phases=3 Bus1=46245493.1.2.3 Bus2=46314925.1.2.3 LineCode=2_ACSR_3PH_12KV_3 Length=0.147551 units=km
New Line.ND46349951$ND46349858 phases=4 Bus1=46349951.0.1.2.3 Bus2=46349858.0.1.2.3 LineCode=336_ACSR_3PH_336_ACSR_N_12KV_4 Length=0.089689 units=km
New Line.ND46314642$2090805E phases=4 Bus1=46314642.0.1.2.3 Bus2=102190404.0.1.2.3 LineCode=6_CU_3PH_6_CU_N_12KV_4 Length=0.141658 units=km
New Line.ND46314642$1623330E phases=2 Bus1=46314642.2.3 Bus2=203059002.2.3 LineCode=4_ACSR_2PH_12KV_2 Length=0.010866 units=km
New Line.ND46314925$4002042E phases=2 Bus1=46314925.1.2 Bus2=46245443.1.2 LineCode=4_ACSR_2PH_12KV_2 Length=0.158025 units=km
New Line.ND46349858$4059251E phases=4 Bus1=46349858.0.1.2.3 Bus2=46295843.0.1.2.3 LineCode=336_ACSR_3PH_336_ACSR_N_12KV_4 Length=0.057799 units=km
New Line.4003240E$ND46349858 phases=2 Bus1=46349858.2.3 Bus2=46313960.2.3 LineCode=1/0_ACSR_2PH_12KV_2 Length=0.002782 units=km
New Line.1623330E$1623329E phases=2 Bus1=203059002.2.3 Bus2=46245799.2.3 LineCode=4_ACSR_2PH_12KV_2 Length=0.135732 units=km
New Line.4059251E$ND46314725 phases=4 Bus1=46295843.0.1.2.3 Bus2=46314725.0.1.2.3 LineCode=336_ACSR_3PH_336_ACSR_N_12KV_4 Length=0.20164 units=km
New Line.2090805E$ND46351417 phases=4 Bus1=102190404.0.1.2.3 Bus2=46351417.0.1.2.3 LineCode=6_CU_3PH_6_CU_N_12KV_4 Length=0.06793 units=km
New Line.ND46351417$4787053E phases=4 Bus1=46351417.0.1.2.3 Bus2=46245959.0.1.2.3 LineCode=4_ACSR_3PH_4_ACSR_N_12KV_4 Length=0.041203 units=km
New Line.ND46351417$23050CWT phases=2 Bus1=46351417.1.2 Bus2=46274130.1.2 LineCode=4_ACSR_2PH_12KV_2 Length=0.095495 units=km
New Line.ND46351417$312096S phases=3 Bus1=46351417.1.2.3 Bus2=46274155.1.2.3 LineCode=4_ACSR_3PH_12KV_3 Length=0.106628 units=km
New Line.ND46314725$4003237E phases=4 Bus1=46314725.0.1.2.3 Bus2=46295756.0.1.2.3 LineCode=336_ACSR_3PH_336_ACSR_N_12KV_4 Length=0.143182 units=km
New Line.4003240E$11130S phases=2 Bus1=46313959.2.3 Bus2=46311647.2.3 LineCode=1/0_ACSR_2PH_12KV_2 Length=0.100021 units=km
New Line.4059252E$ND46314725 phases=2 Bus1=46314725.1.3 Bus2=46313972.1.3 LineCode=4_ACSR_2PH_12KV_2 Length=0.00549 units=km
New Line.1667747E$16633S phases=4 Bus1=69674784.0.1.2.3 Bus2=46273741.0.1.2.3 LineCode=1/0_ACSR_3PH_1/0_ACSR_N_12KV_4 Length=0.143792 units=km
New Line.16633S$4869584E phases=4 Bus1=46273741.0.1.2.3 Bus2=46312837.0.1.2.3 LineCode=1/0_ACSR_3PH_1/0_ACSR_N_12KV_4 Length=0.2435 units=km
New Line.4869584E$16637S phases=4 Bus1=46312837.0.1.2.3 Bus2=107458188.0.1.2.3 LineCode=1/0_ACSR_3PH_1/0_ACSR_N_12KV_4 Length=0.030075 units=km
New Line.16637S$4062631E phases=4 Bus1=107458188.0.1.2.3 Bus2=46244756.0.1.2.3 LineCode=1/0_ACSR_3PH_1/0_ACSR_N_12KV_4 Length=0.034164 units=km
New Line.4415347E$4003281E phases=4 Bus1=69674674.0.1.2.3 Bus2=46295512.0.1.2.3 LineCode=336_ACSR_3PH_336_ACSR_N_12KV_4 Length=0.033637 units=km
New Line.4003237E$PS1101 phases=4 Bus1=46295756.0.1.2.3 Bus2=46314030.0.1.2.3 LineCode=336_ACSR_3PH_336_ACSR_N_12KV_4 Length=0.106411 units=km
New Line.4787053E$ND46349979 phases=4 Bus1=46245959.0.1.2.3 Bus2=46349979.0.1.2.3 LineCode=4_ACSR_3PH_4_ACSR_N_12KV_4 Length=0.180681 units=km
New Line.4003281E$ND46314842 phases=4 Bus1=46295512.0.1.2.3 Bus2=46314842.0.1.2.3 LineCode=336_ACSR_3PH_336_ACSR_N_12KV_4 Length=0.154432 units=km
New Line.4062631E$ND46349455 phases=4 Bus1=46244756.0.1.2.3 Bus2=46349455.0.1.2.3 LineCode=1/0_ACSR_3PH_1/0_ACSR_N_12KV_4 Length=0.094005 units=km
New Line.ND46349455$4229993E phases=2 Bus1=46349455.1.2 Bus2=46244731.1.2 LineCode=4_ACSR_2PH_12KV_2 Length=0.116905 units=km
New Line.4003283E$ND46314842 phases=3 Bus1=46314842.1.2.3 Bus2=46313744.1.2.3 LineCode=1/0_ACSR_3PH_12KV_3 Length=0.147478 units=km
New Line.ND46314842$ND46314178 phases=4 Bus1=46314842.0.1.2.3 Bus2=46314178.0.1.2.3 LineCode=336_ACSR_3PH_336_ACSR_N_12KV_4 Length=0.034951 units=km
New Line.ND46349455$4232670E phases=4 Bus1=46349455.0.1.2.3 Bus2=70179623.0.1.2.3 LineCode=1/0_ACSR_3PH_1/0_ACSR_N_12KV_4 Length=0.071169 units=km
New Line.ND46349979$PH045 phases=4 Bus1=46349979.0.1.2.3 Bus2=46245807.0.1.2.3 LineCode=4_ACSR_3PH_4_ACSR_N_12KV_4 Length=0.016601 units=km
New Line.ND46349979$1622874E phases=3 Bus1=46349979.1.2.3 Bus2=46245984.1.2.3 LineCode=4_ACSR_3PH_12KV_3 Length=0.032454 units=km
New Line.4059252E$4059254E phases=2 Bus1=46313973.1.3 Bus2=46295870.1.3 LineCode=4_ACSR_2PH_12KV_2 Length=0.106504 units=km
New Line.ND46314178$4532608E phases=4 Bus1=46314178.0.1.2.3 Bus2=46275224.0.1.2.3 LineCode=336_ACSR_3PH_336_ACSR_N_12KV_4 Length=0.123422 units=km
New Line.4003283E$ND46349972 phases=3 Bus1=46313743.1.2.3 Bus2=46349972.1.2.3 LineCode=1/0_ACSR_3PH_12KV_3 Length=0.049979 units=km
New Line.4532608E$ND46350854 phases=4 Bus1=46275224.0.1.2.3 Bus2=46350854.0.1.2.3 LineCode=336_ACSR_3PH_336_ACSR_N_12KV_4 Length=0.068606 units=km
New Line.1622874E$1622875E phases=3 Bus1=46245984.1.2.3 Bus2=46246009.1.2.3 LineCode=4_ACSR_3PH_12KV_3 Length=0.100003 units=km
New Line.1622875E$4230405E phases=3 Bus1=46246009.1.2.3 Bus2=46245909.1.2.3 LineCode=4_ACSR_3PH_12KV_3 Length=0.033099 units=km
New Line.2014388E$BF00381 phases=3 Bus1=46245646.1.2.3 Bus2=46313403.1.2.3 LineCode=4_CU_3PH_12KV_3 Length=0.001732 units=km
New Line.2014387E$BF00381 phases=3 Bus1=243472304.1.2.3 Bus2=46245749.1.2.3 LineCode=4_CU_3PH_12KV_3 Length=0.065452 units=km
New Line.2014387E$1668651E phases=3 Bus1=46245749.1.2.3 Bus2=46245774.1.2.3 LineCode=4_CU_3PH_12KV_3 Length=0.129009 units=km
New Line.1668651E$2207398E phases=3 Bus1=46245774.1.2.3 Bus2=46245638.1.2.3 LineCode=4_CU_3PH_12KV_3 Length=0.133701 units=km
New Line.ND46349972$2225969E phases=3 Bus1=46349972.1.2.3 Bus2=46275276.1.2.3 LineCode=1/0_ACSR_3PH_12KV_3 Length=0.138041 units=km
New Line.ND46349972$213320S phases=3 Bus1=46349972.1.2.3 Bus2=46295480.1.2.3 LineCode=1/0_ACSR_3PH_12KV_3 Length=0.131985 units=km
New Line.ND46350854$2358008E phases=3 Bus1=46350854.1.2.3 Bus2=46295695.1.2.3 LineCode=336_ACSR_3PH_12KV_3 Length=0.10038 units=km
New Line.ND46350854$ND46314834 phases=4 Bus1=46350854.0.1.2.3 Bus2=46314834.0.1.2.3 LineCode=336_ACSR_3PH_336_ACSR_N_12KV_4 Length=0.278097 units=km
New Line.2225969E$2352533E phases=3 Bus1=46275276.1.2.3 Bus2=46275251.1.2.3 LineCode=1/0_ACSR_3PH_12KV_3 Length=0.031393 units=km
New Line.2357883E$ND46314834 phases=4 Bus1=46314834.0.1.2.3 Bus2=46313878.0.1.2.3 LineCode=4_ACSR_3PH_4_ACSR_N_12KV_4 Length=0.002571 units=km
New Line.PS1533$ND46314834 phases=4 Bus1=46314834.0.1.2.3 Bus2=46313896.0.1.2.3 LineCode=336_ACSR_3PH_336_ACSR_N_12KV_4 Length=0.232631 units=km
New Line.ND170742908$GS1150-3 phases=3 Bus1=46294760.1.2.3 Bus2=-77777746294760.1.2.3 LineCode=1/0_CLP_3PH_12KV_3 Length=0.363944 units=km
New Line.B5314933-1$ND141225994 phases=1 Bus1=46294511.2 Bus2=-77777746294511.2 LineCode=2_CLP_1PH_12KV_1 Length=0.077178 units=km
New Line.ND69674936$ND69094040 phases=1 Bus1=69674936.1 Bus2=-77777769674936.1 LineCode=2_CLP_1PH_12KV_1 Length=5e-05 units=km
New Line.ND46314925$ND213201567 phases=3 Bus1=46314925.1.2.3 Bus2=-77777746314925.1.2.3 LineCode=2_ACSR_3PH_12KV_3 Length=0.049578 units=km
New Line.ND86490115$4507471E phases=2 Bus1=86490075.1.3 Bus2=86490115.1.3 LineCode=UNK_UNK_2PH_12KV_2 Length=1e-05 units=km
New Line.312461S$4507464E phases=2 Bus1=86489992.2.3 Bus2=46274030.2.3 LineCode=4_ACSR_2PH_12KV_2 Length=0.046717 units=km
New Line.2357883E$FD70123 phases=4 Bus1=46313879.0.1.2.3 Bus2=46275331.0.1.2.3 LineCode=4_ACSR_3PH_4_ACSR_N_12KV_4 Length=0.029323 units=km
New Line.PS1533$4487403E phases=4 Bus1=46313897.0.1.2.3 Bus2=69675466.0.1.2.3 LineCode=336_ACSR_3PH_336_ACSR_N_12KV_4 Length=0.056566 units=km
New Line.ND46314360$4169813E phases=4 Bus1=204807920.0.1.2.3 Bus2=46314360.0.1.2.3 LineCode=653_ACSR_3PH_653_ACSR_N_12KV_4 Length=0.195005 units=km
New Line.ND46349681$ND46349682 phases=3 Bus1=46349681.0.1.2 Bus2=46349682.0.1.2 LineCode=653_ACSR_2PH_653_ACSR_N_12KV_3_N Length=0.005571 units=km
New Line.312463S$ND86490115 phases=2 Bus1=86490115.1.3 Bus2=46274055.1.3 LineCode=4_ACSR_2PH_12KV_2 Length=0.053015 units=km