! OpenDSS script generated from multiconductor network
Clear

New Circuit.mc_network basekv=12.0 pu=1.000000 angle=0.00 frequency=60.0 phases=3 Mvasc3=143993 Mvasc1=47997.6
~ bus1=-8888882189921.1.2.3

! Line codes
New LineCode.1000_CLP_3PH_12KV_3 nphases=3 units=km Rmatrix=[ 0.002672 | 0 0.002672 | 0 0 0.002672 ] Xmatrix=[ 0.004045 | 0 0.004045 | 0 0 0.004045 ] Cmatrix=[ 0 | 0 0 | 0 0 0 ]
New LineCode.350_AL_1PH_12KV_1 nphases=1 units=km Rmatrix=[ 0.002471 ] Xmatrix=[ 0.001877 ] Cmatrix=[ 0 ]
New LineCode.2_CLP_3PH_12KV_3 nphases=3 units=km Rmatrix=[ 0.008017 | 0 0.008017 | 0 0 0.008017 ] Xmatrix=[ 0.00169 | 0 0.00169 | 0 0 0.00169 ] Cmatrix=[ 0 | 0 0 | 0 0 0 ]
New LineCode.750_AL_3PH_12KV_3 nphases=3 units=km Rmatrix=[ 0.001986 | 0 0.001986 | 0 0 0.001986 ] Xmatrix=[ 0.002439 | 0 0.002439 | 0 0 0.002439 ] Cmatrix=[ 0 | 0 0 | 0 0 0 ]
New LineCode.750_AL_1PH_12KV_1 nphases=1 units=km Rmatrix=[ 0.000471 ] Xmatrix=[ 0.000578 ] Cmatrix=[ 0 ]
New LineCode.2_CLP_1PH_12KV_1 nphases=1 units=km Rmatrix=[ 0.153136 ] Xmatrix=[ 0.032278 ] Cmatrix=[ 0 ]
New LineCode.2_CLP_2PH_12KV_2 nphases=2 units=km Rmatrix=[ 0.023262 | 0 0.023262 ] Xmatrix=[ 0.004903 | 0 0.004903 ] Cmatrix=[ 0 | 0 0 ]
New LineCode.1/0_CLP_3PH_12KV_3 nphases=3 units=km Rmatrix=[ 0.06465 | 0 0.06465 | 0 0 0.06465 ] Xmatrix=[ 0.01976 | 0 0.01976 | 0 0 0.01976 ] Cmatrix=[ 0 | 0 0 | 0 0 0 ]
New LineCode.1/0_CLP_1PH_12KV_1 nphases=1 units=km Rmatrix=[ 0.079738 ] Xmatrix=[ 0.024372 ] Cmatrix=[ 0 ]
New LineCode.653_ACSR_3PH_653_ACSR_N_12KV_4 nphases=4 units=km Rmatrix=[ 0.006461 | 0 0.006461 | 0 0 0.006461 | 0 0 0 0.006461 ] Xmatrix=[ 0.021967 | 0 0.021967 | 0 0 0.021967 | 0 0 0 0.021967 ] Cmatrix=[ 0 | 0 0 | 0 0 0 | 0 0 0 0 ]
New LineCode.1/0_ACSR_3PH_12KV_3 nphases=3 units=km Rmatrix=[ 0.003199 | 0 0.003199 | 0 0 0.003199 ] Xmatrix=[ 0.002547 | 0 0.002547 | 0 0 0.002547 ] Cmatrix=[ 0 | 0 0 | 0 0 0 ]
New LineCode.2_ACSR_1PH_2_ACSR_N_12KV_3_N nphases=3 units=km Rmatrix=[ 0.00352 | 0 0.00352 | 0 0 0.00352 ] Xmatrix=[ 0.001706 | 0 0.001706 | 0 0 0.001706 ] Cmatrix=[ 0 | 0 0 | 0 0 0 ]
New LineCode.336_ACSR_3PH_336_ACSR_N_12KV_4 nphases=4 units=km Rmatrix=[ 0.016455 | 0 0.016455 | 0 0 0.016455 | 0 0 0 0.016455 ] Xmatrix=[ 0.032814 | 0 0.032814 | 0 0 0.032814 | 0 0 0 0.032814 ] Cmatrix=[ 0 | 0 0 | 0 0 0 | 0 0 0 0 ]
New LineCode.4_ACSR_2PH_12KV_2 nphases=2 units=km Rmatrix=[ 0.147391 | 0 0.147391 ] Xmatrix=[ 0.054084 | 0 0.054084 ] Cmatrix=[ 0 | 0 0 ]
New LineCode.336_ACSR_1PH_336_ACSR_N_12KV_3_N nphases=3 units=km Rmatrix=[ 0.007661 | 0 0.007661 | 0 0 0.007661 ] Xmatrix=[ 0.015278 | 0 0.015278 | 0 0 0.015278 ] Cmatrix=[ 0 | 0 0 | 0 0 0 ]
New LineCode.1/0_JCN_1PH_12KV_1 nphases=1 units=km Rmatrix=[ 0.001157 ] Xmatrix=[ 0.000354 ] Cmatrix=[ 0 ]
New LineCode.1/0_JCN_2PH_12KV_2 nphases=2 units=km Rmatrix=[ 0.001223 | 0 0.001223 ] Xmatrix=[ 0.000374 | 0 0.000374 ] Cmatrix=[ 0 | 0 0 ]
New LineCode.350_CLP_1PH_12KV_1 nphases=1 units=km Rmatrix=[ 0.020457 ] Xmatrix=[ 0.015543 ] Cmatrix=[ 0 ]
New LineCode.1/0_JCN_3PH_12KV_3 nphases=3 units=km Rmatrix=[ 0.002053 | 0 0.002053 | 0 0 0.002053 ] Xmatrix=[ 0.000628 | 0 0.000628 | 0 0 0.000628 ] Cmatrix=[ 0 | 0 0 | 0 0 0 ]
New LineCode.350_AL_2PH_12KV_2 nphases=2 units=km Rmatrix=[ 0.002053 | 0 0.002053 ] Xmatrix=[ 0.00156 | 0 0.00156 ] Cmatrix=[ 0 | 0 0 ]
New LineCode.1/0_ACSR_1PH_1/0_ACSR_N_12KV_3_N nphases=3 units=km Rmatrix=[ 0.002392 | 0 0.002392 | 0 0 0.002392 ] Xmatrix=[ 0.001729 | 0 0.001729 | 0 0 0.001729 ] Cmatrix=[ 0 | 0 0 | 0 0 0 ]
New LineCode.1/0_AL_1PH_12KV_1 nphases=1 units=km Rmatrix=[ 0.001958 ] Xmatrix=[ 0.000599 ] Cmatrix=[ 0 ]
New LineCode.350_JCN_3PH_12KV_3 nphases=3 units=km Rmatrix=[ 0.037327 | 0 0.037327 | 0 0 0.037327 ] Xmatrix=[ 0.028361 | 0 0.028361 | 0 0 0.028361 ] Cmatrix=[ 0 | 0 0 | 0 0 0 ]
New LineCode.1000_JCN_3PH_12KV_3 nphases=3 units=km Rmatrix=[ 0.017294 | 0 0.017294 | 0 0 0.017294 ] Xmatrix=[ 0.026179 | 0 0.026179 | 0 0 0.026179 ] Cmatrix=[ 0 | 0 0 | 0 0 0 ]
New LineCode.2_AL_1PH_12KV_1 nphases=1 units=km Rmatrix=[ 0.07164 ] Xmatrix=[ 0.0151 ] Cmatrix=[ 0 ]
New LineCode.1/0_ACSR_3PH_1/0_ACSR_N_12KV_4 nphases=4 units=km Rmatrix=[ 0.02888 | 0 0.02888 | 0 0 0.02888 | 0 0 0 0.02888 ] Xmatrix=[ 0.020871 | 0 0.020871 | 0 0 0.020871 | 0 0 0 0.020871 ] Cmatrix=[ 0 | 0 0 | 0 0 0 | 0 0 0 0 ]
New LineCode.4/0_ACSR_3PH_4/0_ACSR_N_12KV_4 nphases=4 units=km Rmatrix=[ 0.019077 | 0 0.019077 | 0 0 0.019077 | 0 0 0 0.019077 ] Xmatrix=[ 0.024286 | 0 0.024286 | 0 0 0.024286 | 0 0 0 0.024286 ] Cmatrix=[ 0 | 0 0 | 0 0 0 | 0 0 0 0 ]
New LineCode.1/0_CU_3PH_1/0_CU_N_12KV_4 nphases=4 units=km Rmatrix=[ 0.012953 | 0 0.012953 | 0 0 0.012953 | 0 0 0 0.012953 ] Xmatrix=[ 0.014503 | 0 0.014503 | 0 0 0.014503 | 0 0 0 0.014503 ] Cmatrix=[ 0 | 0 0 | 0 0 0 | 0 0 0 0 ]
New LineCode.4_ACSR_3PH_12KV_3 nphases=3 units=km Rmatrix=[ 0.024576 | 0 0.024576 | 0 0 0.024576 ] Xmatrix=[ 0.009018 | 0 0.009018 | 0 0 0.009018 ] Cmatrix=[ 0 | 0 0 | 0 0 0 ]

! Lines
New Line.ND165880252$ND185931997 phases=3 Bus1=165880252.1.2.3 Bus2=-777777165880252.1.2.3 LineCode=1000_CLP_3PH_12KV_3 Length=0.092555 units=km
New Line.ND33230543$ND33279838 phases=1 Bus1=33230543.1 Bus2=-77777733230543.1 LineCode=350_AL_1PH_12KV_1 Length=0.011172 units=km
New Line.ND33230544$ND33279189 phases=1 Bus1=33230544.2 Bus2=-77777733230544.2 LineCode=350_AL_1PH_12KV_1 Length=0.002352 units=km
New Line.13695$2174352E phases=3 Bus1=-8888882189921.1.2.3 Bus2=33228338.1.2.3 LineCode=1000_CLP_3PH_12KV_3 Length=0.672686 units=km
New Line.ND273698587$PH4371E phases=3 Bus1=273698587.1.2.3 Bus2=273698567.1.2.3 LineCode=2_CLP_3PH_12KV_3 Length=0.002066 units=km
New Line.ND33230767$2174361E phases=3 Bus1=33137183.1.2.3 Bus2=33230767.1.2.3 LineCode=750_AL_3PH_12KV_3 Length=0.017567 units=km
New Line.PH4371E$173920788 phases=3 Bus1=273698568.1.2.3 Bus2=173920790.1.2.3 LineCode=2_CLP_3PH_12KV_3 Length=0.112424 units=km
New Line.ND33230767$BS3160-1 phases=1 Bus1=33230767.1 Bus2=33137199.1 LineCode=750_AL_1PH_12KV_1 Length=0.080081 units=km
New Line.ND33230767$BS3158-1 phases=1 Bus1=33230767.3 Bus2=33137249.3 LineCode=750_AL_1PH_12KV_1 Length=0.064012 units=km
New Line.ND33230767$BS3159-1 phases=1 Bus1=33230767.2 Bus2=33137299.2 LineCode=750_AL_1PH_12KV_1 Length=0.073908 units=km
New Line.173920788$P5611047-1 phases=3 Bus1=173920791.1.2.3 Bus2=141007620.1.2.3 LineCode=2_CLP_3PH_12KV_3 Length=0.004897 units=km
New Line.B5329290-1$BS3158-1 phases=1 Bus1=33137250.3 Bus2=33137349.3 LineCode=750_AL_1PH_12KV_1 Length=0.09474 units=km
New Line.B5329299-2$BS3160-1 phases=1 Bus1=33137200.1 Bus2=33138078.1 LineCode=750_AL_1PH_12KV_1 Length=0.062985 units=km
New Line.BS3159-1$ND33231252 phases=1 Bus1=33137300.2 Bus2=33231252.2 LineCode=750_AL_1PH_12KV_1 Length=0.062341 units=km
New Line.B5329295-2$ND33231252 phases=1 Bus1=33231252.2 Bus2=33137574.2 LineCode=750_AL_1PH_12KV_1 Length=0.068355 units=km
New Line.B5329296-1$ND33231252 phases=1 Bus1=33231252.2 Bus2=33137637.2 LineCode=750_AL_1PH_12KV_1 Length=0.050241 units=km
New Line.GS4700-1$4384050E phases=3 Bus1=33227873.1.2.3 Bus2=33227931.1.2.3 LineCode=1000_CLP_3PH_12KV_3 Length=0.145478 units=km
New Line.B5329291-1$B5329290-2 phases=1 Bus1=33137358.3 Bus2=33137421.3 LineCode=750_AL_1PH_12KV_1 Length=0.097133 units=km
New Line.B5329299-1$B5329300-2 phases=1 Bus1=33138069.1 Bus2=33138006.1 LineCode=750_AL_1PH_12KV_1 Length=0.145299 units=km
New Line.B5329296-2$B5325075-1 phases=1 Bus1=33137646.2 Bus2=33137853.2 LineCode=750_AL_1PH_12KV_1 Length=0.269255 units=km
New Line.GS4700-2$ND85259285 phases=3 Bus1=33227923.1.2.3 Bus2=85259285.1.2.3 LineCode=1000_CLP_3PH_12KV_3 Length=0.031695 units=km
New Line.ND151683503$ND85259285 phases=3 Bus1=85259285.1.2.3 Bus2=151683503.1.2.3 LineCode=1000_CLP_3PH_12KV_3 Length=0.320335 units=km
New Line.ND85259285$172027152 phases=1 Bus1=85259285.1 Bus2=172027154.1 LineCode=2_CLP_1PH_12KV_1 Length=0.061977 units=km
New Line.B5329292-1$B5329291-2 phases=1 Bus1=33137430.3 Bus2=33137493.3 LineCode=750_AL_1PH_12KV_1 Length=0.116211 units=km
New Line.B5325051-2$B5329300-1 phases=1 Bus1=33137997.1 Bus2=33138150.1 LineCode=750_AL_1PH_12KV_1 Length=0.164844 units=km
New Line.ND33230574$GS4700-3 phases=3 Bus1=33227939.1.2.3 Bus2=33230574.1.2.3 LineCode=2_CLP_3PH_12KV_3 Length=0.071849 units=km
New Line.B5325075-2$B5325074-1 phases=1 Bus1=33137862.2 Bus2=33137781.2 LineCode=750_AL_1PH_12KV_1 Length=0.151037 units=km
New Line.GS4700-4$H6399Y phases=3 Bus1=33227947.1.2.3 Bus2=33227843.1.2.3 LineCode=1000_CLP_3PH_12KV_3 Length=0.221044 units=km
New Line.ND33230574$ND33230575 phases=3 Bus1=33230574.1.2.3 Bus2=33230575.1.2.3 LineCode=2_CLP_3PH_12KV_3 Length=0.004918 units=km
New Line.V5554313T1$ND151683503 phases=1 Bus1=151683503.2 Bus2=84027637.2 LineCode=2_CLP_1PH_12KV_1 Length=0.007006 units=km
New Line.ND151683503$GS5903-2 phases=3 Bus1=151683503.1.2.3 Bus2=85258324.1.2.3 LineCode=1000_CLP_3PH_12KV_3 Length=0.02892 units=km
New Line.172027152$J155-4P phases=1 Bus1=172027155.1 Bus2=172027006.1 LineCode=2_CLP_1PH_12KV_1 Length=0.002655 units=km
New Line.ND33230575$237252117 phases=1 Bus1=33230575.3 Bus2=237252119.3 LineCode=2_CLP_1PH_12KV_1 Length=0.003115 units=km
New Line.ND33230575$33230103 phases=2 Bus1=33230575.1.2 Bus2=33230105.1.2 LineCode=2_CLP_2PH_12KV_2 Length=0.02088 units=km
New Line.B5325051-1$B5325076-2 phases=1 Bus1=33138141.1 Bus2=33137934.1 LineCode=750_AL_1PH_12KV_1 Length=0.193788 units=km
New Line.33230103$P5456839-1 phases=2 Bus1=33230106.1.2 Bus2=153354214.1.2 LineCode=2_CLP_2PH_12KV_2 Length=0.002596 units=km
New Line.B5325074-2$B5325073-1 phases=1 Bus1=33137790.2 Bus2=33137709.2 LineCode=750_AL_1PH_12KV_1 Length=0.146987 units=km
New Line.237252117$P5503900T1 phases=1 Bus1=237252120.3 Bus2=33230115.3 LineCode=2_CLP_1PH_12KV_1 Length=0.0023 units=km
New Line.ND152033512$GS5903-3 phases=3 Bus1=85258340.1.2.3 Bus2=152033512.1.2.3 LineCode=1/0_CLP_3PH_12KV_3 Length=0.46675 units=km
New Line.GS5903-1$ND173615480 phases=3 Bus1=85258332.1.2.3 Bus2=173615480.1.2.3 LineCode=1000_CLP_3PH_12KV_3 Length=0.302351 units=km
New Line.ND138407253$ND173615480 phases=3 Bus1=173615480.1.2.3 Bus2=138407253.1.2.3 LineCode=1000_CLP_3PH_12KV_3 Length=0.158787 units=km
New Line.J331-1P$ND152033512 phases=3 Bus1=152033512.1.2.3 Bus2=152480194.1.2.3 LineCode=1/0_CLP_3PH_12KV_3 Length=0.004724 units=km
New Line.J155-3P$172027398 phases=1 Bus1=172026998.1 Bus2=172027401.1 LineCode=2_CLP_1PH_12KV_1 Length=0.002883 units=km
New Line.ND173615480$V5554326 phases=3 Bus1=173615480.1.2.3 Bus2=173615382.1.2.3 LineCode=1000_CLP_3PH_12KV_3 Length=0.001931 units=km
New Line.ND152033512$218387686 phases=3 Bus1=152033512.1.2.3 Bus2=218387688.1.2.3 LineCode=1/0_CLP_3PH_12KV_3 Length=0.084438 units=km
New Line.B5158747-2$FD30903 phases=1 Bus1=33199638.2 Bus2=33138280.2 LineCode=2_CLP_1PH_12KV_1 Length=0.122733 units=km
New Line.GS5904-3$GS5903-4 phases=3 Bus1=85258348.1.2.3 Bus2=85258531.1.2.3 LineCode=1000_CLP_3PH_12KV_3 Length=0.155311 units=km
New Line.ND138407253$V5554327 phases=1 Bus1=138407253.2 Bus2=138407247.2 LineCode=2_CLP_1PH_12KV_1 Length=0.00197 units=km
New Line.J155-2P$179584921 phases=1 Bus1=172027014.1 Bus2=179584924.1 LineCode=1/0_CLP_1PH_12KV_1 Length=0.002856 units=km
New Line.GS5908-3$ND138407253 phases=3 Bus1=138407253.1.2.3 Bus2=84027508.1.2.3 LineCode=1000_CLP_3PH_12KV_3 Length=0.008878 units=km
New Line.218387686$P5554329-A phases=3 Bus1=218387689.1.2.3 Bus2=151522934.1.2.3 LineCode=1/0_CLP_3PH_12KV_3 Length=0.003435 units=km
New Line.172027120$J155-1P phases=1 Bus1=172026990.1 Bus2=172027123.1 LineCode=2_CLP_1PH_12KV_1 Length=0.002655 units=km
New Line.V5465154T1$172027398 phases=1 Bus1=172027400.1 Bus2=172027196.1 LineCode=2_CLP_1PH_12KV_1 Length=0.006608 units=km
New Line.179584921$179584951 phases=1 Bus1=179584923.1 Bus2=179584953.1 LineCode=1/0_CLP_1PH_12KV_1 Length=0.115906 units=km
New Line.B5158747-1$ND33279545 phases=1 Bus1=33138271.2 Bus2=33279545.2 LineCode=2_CLP_1PH_12KV_1 Length=0.190778 units=km
New Line.173091389$172027120 phases=1 Bus1=172027122.1 Bus2=173091391.1 LineCode=2_CLP_1PH_12KV_1 Length=0.15627 units=km
New Line.J331-2P$174349789 phases=3 Bus1=152480210.1.2.3 Bus2=174349791.1.2.3 LineCode=1/0_CLP_3PH_12KV_3 Length=0.046179 units=km
New Line.B5158748-2$ND33279545 phases=1 Bus1=33279545.2 Bus2=33138352.2 LineCode=2_CLP_1PH_12KV_1 Length=0.142334 units=km
New Line.B5158749-1$ND33279545 phases=1 Bus1=33279545.2 Bus2=33138415.2 LineCode=2_CLP_1PH_12KV_1 Length=0.0136 units=km
New Line.GS5904-2$ND84027828 phases=3 Bus1=85258523.1.2.3 Bus2=84027828.1.2.3 LineCode=2_CLP_3PH_12KV_3 Length=0.064956 units=km
New Line.PME7569-1$179584951 phases=1 Bus1=179584954.1 Bus2=179584613.1 LineCode=1/0_CLP_1PH_12KV_1 Length=0.001859 units=km
New Line.P5554329-B$218387712 phases=3 Bus1=151522952.1.2.3 Bus2=218387715.1.2.3 LineCode=1/0_CLP_3PH_12KV_3 Length=0.002749 units=km
New Line.J331-3P$218387829 phases=3 Bus1=152480202.1.2.3 Bus2=218387831.1.2.3 LineCode=1/0_CLP_3PH_12KV_3 Length=0.147641 units=km
New Line.PS1393$2174352E phases=4 Bus1=33228337.0.1.2.3 Bus2=33228501.0.1.2.3 LineCode=653_ACSR_3PH_653_ACSR_N_12KV_4 Length=0.026978 units=km
New Line.PS1393$ND33231177 phases=4 Bus1=33228502.0.1.2.3 Bus2=33231177.0.1.2.3 LineCode=653_ACSR_3PH_653_ACSR_N_12KV_4 Length=0.309953 units=km
New Line.ND33231177$1619447E phases=3 Bus1=33231177.1.2.3 Bus2=33137174.1.2.3 LineCode=1/0_ACSR_3PH_12KV_3 Length=0.025916 units=km
New Line.ND33231177$ND33230402 phases=4 Bus1=33231177.0.1.2.3 Bus2=33230402.0.1.2.3 LineCode=653_ACSR_3PH_653_ACSR_N_12KV_4 Length=0.088186 units=km
New Line.ND33230402$ND273698587 phases=4 Bus1=33230402.0.1.2.3 Bus2=273698587.0.1.2.3 LineCode=653_ACSR_3PH_653_ACSR_N_12KV_4 Length=0.528192 units=km
New Line.ND33230402$2174361E phases=4 Bus1=33230402.0.1.2.3 Bus2=33137182.0.1.2.3 LineCode=653_ACSR_3PH_653_ACSR_N_12KV_4 Length=0.093001 units=km
New Line.2174375E$ND273698587 phases=4 Bus1=273698587.0.1.2.3 Bus2=33138228.0.1.2.3 LineCode=653_ACSR_3PH_653_ACSR_N_12KV_4 Length=0.117039 units=km
New Line.2174375E$ND141007594 phases=4 Bus1=33138228.0.1.2.3 Bus2=141007594.0.1.2.3 LineCode=653_ACSR_3PH_653_ACSR_N_12KV_4 Length=0.063245 units=km
New Line.ND141007594$ND193513890 phases=4 Bus1=141007594.0.1.2.3 Bus2=193513890.0.1.2.3 LineCode=653_ACSR_3PH_653_ACSR_N_12KV_4 Length=0.093919 units=km
New Line.ND193513890$4384050E phases=4 Bus1=193513890.0.1.2.3 Bus2=33227872.0.1.2.3 LineCode=653_ACSR_3PH_653_ACSR_N_12KV_4 Length=0.023073 units=km
New Line.H6399Y$ND33230523 phases=4 Bus1=33227842.0.1.2.3 Bus2=33230523.0.1.2.3 LineCode=653_ACSR_3PH_653_ACSR_N_12KV_4 Length=0.060562 units=km
New Line.ND33230523$FD30903 phases=3 Bus1=33230523.0.1.2 Bus2=33199637.0.1.2 LineCode=2_ACSR_1PH_2_ACSR_N_12KV_3_N Length=0.104529 units=km
New Line.PS0159$ND33230523 phases=4 Bus1=33230523.0.1.2.3 Bus2=33228553.0.1.2.3 LineCode=653_ACSR_3PH_653_ACSR_N_12KV_4 Length=0.055765 units=km
New Line.PS0159$2152838E phases=4 Bus1=33228554.0.1.2.3 Bus2=33138574.0.1.2.3 LineCode=653_ACSR_3PH_653_ACSR_N_12KV_4 Length=0.039236 units=km
New Line.2152838E$4310126E phases=4 Bus1=33138574.0.1.2.3 Bus2=33227529.0.1.2.3 LineCode=336_ACSR_3PH_336_ACSR_N_12KV_4 Length=0.127531 units=km
New Line.4310126E$ND33278543 phases=4 Bus1=33227529.0.1.2.3 Bus2=33278543.0.1.2.3 LineCode=336_ACSR_3PH_336_ACSR_N_12KV_4 Length=0.025456 units=km
New Line.ND33278543$BF30449 phases=2 Bus1=33278543.1.2 Bus2=33228582.1.2 LineCode=4_ACSR_2PH_12KV_2 Length=0.096843 units=km
New Line.ND33278543$ND33278544 phases=4 Bus1=33278543.0.1.2.3 Bus2=33278544.0.1.2.3 LineCode=336_ACSR_3PH_336_ACSR_N_12KV_4 Length=0.063429 units=km
New Line.ND33278544$FD30910 phases=3 Bus1=33278544.0.2.3 Bus2=33199653.0.2.3 LineCode=336_ACSR_1PH_336_ACSR_N_12KV_3_N Length=0.010016 units=km
New Line.ND33278544$ND33230782 phases=4 Bus1=33278544.0.1.2.3 Bus2=33230782.0.1.2.3 LineCode=336_ACSR_3PH_336_ACSR_N_12KV_4 Length=0.15989 units=km
New Line.BF30449$H9456Y phases=2 Bus1=33228583.1.2 Bus2=33138601.1.2 LineCode=4_ACSR_2PH_12KV_2 Length=0.087119 units=km
New Line.GS5904-1$GS5905-4 phases=3 Bus1=85258515.1.2.3 Bus2=84027326.1.2.3 LineCode=1000_CLP_3PH_12KV_3 Length=0.343485 units=km
New Line.ND84027828$84027772 phases=3 Bus1=84027828.1.2.3 Bus2=84027774.1.2.3 LineCode=2_CLP_3PH_12KV_3 Length=0.03119 units=km
New Line.ND84027828$84027806 phases=3 Bus1=84027828.1.2.3 Bus2=84027808.1.2.3 LineCode=2_CLP_3PH_12KV_3 Length=0.080161 units=km
New Line.174349789$P5604698-1 phases=3 Bus1=174349792.1.2.3 Bus2=153354320.1.2.3 LineCode=1/0_CLP_3PH_12KV_3 Length=0.002542 units=km
New Line.GS5908-1$GS7383-4 phases=3 Bus1=84027492.1.2.3 Bus2=173082861.1.2.3 LineCode=1000_CLP_3PH_12KV_3 Length=0.033954 units=km
New Line.LBFC4720-1$173091389 phases=1 Bus1=173091392.1 Bus2=33228133.1 LineCode=2_CLP_1PH_12KV_1 Length=0.001579 units=km
New Line.FD30910$ND33280415 phases=1 Bus1=33199654.3 Bus2=33280415.3 LineCode=2_CLP_1PH_12KV_1 Length=0.069373 units=km
New Line.218387829$P5554332-A phases=3 Bus1=218387832.1.2.3 Bus2=151522739.1.2.3 LineCode=1/0_CLP_3PH_12KV_3 Length=0.003351 units=km
New Line.PME7569-1$179584990 phases=1 Bus1=179584614.1 Bus2=179584993.1 LineCode=1/0_JCN_1PH_12KV_1 Length=0.00277 units=km
New Line.218387712$218387739 phases=3 Bus1=218387714.1.2.3 Bus2=218387741.1.2.3 LineCode=1/0_CLP_3PH_12KV_3 Length=0.091749 units=km
New Line.B5158750-2$B5158749-2 phases=1 Bus1=33138424.2 Bus2=33138496.2 LineCode=2_CLP_1PH_12KV_1 Length=0.154888 units=km
New Line.B5131553-1$ND33280415 phases=1 Bus1=33280415.3 Bus2=33138663.3 LineCode=2_CLP_1PH_12KV_1 Length=0.189136 units=km
New Line.B5131551-2$ND33280415 phases=1 Bus1=33280415.3 Bus2=33138744.3 LineCode=2_CLP_1PH_12KV_1 Length=0.019998 units=km
New Line.84027772$P5554314-1 phases=3 Bus1=84027775.1.2.3 Bus2=84027692.1.2.3 LineCode=2_CLP_3PH_12KV_3 Length=0.007197 units=km
New Line.84027806$P5554316-1 phases=3 Bus1=84027809.1.2.3 Bus2=84027736.1.2.3 LineCode=2_CLP_3PH_12KV_3 Length=0.004801 units=km
New Line.173091362$LBFC4720-1 phases=1 Bus1=33228134.1 Bus2=173091365.1 LineCode=2_CLP_1PH_12KV_1 Length=0.082207 units=km
New Line.GS5905-3$ND151522672 phases=3 Bus1=84027318.1.2.3 Bus2=151522672.1.2.3 LineCode=1/0_CLP_3PH_12KV_3 Length=0.047474 units=km
New Line.218387739$P5554330-A phases=3 Bus1=218387742.1.2.3 Bus2=151522845.1.2.3 LineCode=1/0_CLP_3PH_12KV_3 Length=0.002487 units=km
New Line.179584990$179585015 phases=1 Bus1=179584992.1 Bus2=179585017.1 LineCode=1/0_JCN_1PH_12KV_1 Length=0.02165 units=km
New Line.58YPH$236484938 phases=2 Bus1=236484841.1.2 Bus2=236484940.1.2 LineCode=1/0_JCN_2PH_12KV_2 Length=0.036359 units=km
New Line.ND33230906$FD30909 phases=3 Bus1=33230906.0.1.2 Bus2=33199698.0.1.2 LineCode=336_ACSR_1PH_336_ACSR_N_12KV_3_N Length=0.092872 units=km
New Line.P5554332-B$218387797 phases=3 Bus1=151522757.1.2.3 Bus2=218387800.1.2.3 LineCode=1/0_CLP_3PH_12KV_3 Length=0.003337 units=km
New Line.GS7383-3$219898271 phases=1 Bus1=173082853.1 Bus2=219898273.1 LineCode=1/0_JCN_1PH_12KV_1 Length=0.062675 units=km
New Line.219988421$ND151522672 phases=3 Bus1=151522672.1.2.3 Bus2=219988423.1.2.3 LineCode=1/0_CLP_3PH_12KV_3 Length=0.101412 units=km
New Line.B5131552-2$B5131551-1 phases=1 Bus1=33138735.3 Bus2=33138816.3 LineCode=2_CLP_1PH_12KV_1 Length=0.128695 units=km
New Line.ND33230907$FD30908 phases=3 Bus1=33230907.0.1.2 Bus2=33199714.0.1.2 LineCode=336_ACSR_1PH_336_ACSR_N_12KV_3_N Length=0.041346 units=km
New Line.B5490237-2$173091362 phases=1 Bus1=173091364.1 Bus2=33228192.1 LineCode=2_CLP_1PH_12KV_1 Length=0.031507 units=km
New Line.ND151522672$ND94944886 phases=3 Bus1=151522672.1.2.3 Bus2=94944886.1.2.3 LineCode=1/0_CLP_3PH_12KV_3 Length=0.005039 units=km
New Line.ND165880252$GS5905-1 phases=3 Bus1=84027310.1.2.3 Bus2=165880252.1.2.3 LineCode=1000_CLP_3PH_12KV_3 Length=0.073526 units=km
New Line.179585015$P5657088-1 phases=1 Bus1=179585018.1 Bus2=179584477.1 LineCode=1/0_JCN_1PH_12KV_1 Length=0.002122 units=km
New Line.ND94944886$219988478 phases=3 Bus1=94944886.1.2.3 Bus2=219988480.1.2.3 LineCode=2_CLP_3PH_12KV_3 Length=0.077968 units=km
New Line.236484938$P5762984-1 phases=2 Bus1=236484941.1.2 Bus2=236484871.1.2 LineCode=1/0_JCN_2PH_12KV_2 Length=0.001729 units=km
New Line.B5132251-1$FD30909 phases=1 Bus1=33199699.2 Bus2=33139131.2 LineCode=350_CLP_1PH_12KV_1 Length=0.040013 units=km
New Line.ND94944886$84028502 phases=3 Bus1=94944886.1.2.3 Bus2=84028504.1.2.3 LineCode=1/0_CLP_3PH_12KV_3 Length=0.073147 units=km
New Line.GS7383-2$GS6169-3 phases=3 Bus1=173082837.1.2.3 Bus2=91195056.1.2.3 LineCode=1000_CLP_3PH_12KV_3 Length=0.401683 units=km
New Line.P5554318-A$219988421 phases=3 Bus1=219988424.1.2.3 Bus2=151522582.1.2.3 LineCode=1/0_CLP_3PH_12KV_3 Length=0.002705 units=km
New Line.GS7383-1$173083513 phases=3 Bus1=173082845.1.2.3 Bus2=173083515.1.2.3 LineCode=1/0_JCN_3PH_12KV_3 Length=0.053602 units=km
New Line.218387797$218387885 phases=3 Bus1=218387799.1.2.3 Bus2=218387887.1.2.3 LineCode=1/0_CLP_3PH_12KV_3 Length=0.113871 units=km
New Line.219898271$FC8281-1 phases=1 Bus1=219898274.1 Bus2=219898228.1 LineCode=1/0_JCN_1PH_12KV_1 Length=0.003173 units=km
New Line.B5151503-2$FD30908 phases=1 Bus1=33199715.1 Bus2=33139356.1 LineCode=350_CLP_1PH_12KV_1 Length=0.113209 units=km
New Line.ND165880252$GS5906-1 phases=3 Bus1=165880252.1.2.3 Bus2=84027880.1.2.3 LineCode=1000_CLP_3PH_12KV_3 Length=0.197207 units=km
New Line.B5132015-2$B5131552-1 phases=1 Bus1=33138807.3 Bus2=33138888.3 LineCode=2_CLP_1PH_12KV_1 Length=0.091475 units=km
New Line.465429E$ND33230543 phases=2 Bus1=33199744.1.2 Bus2=33230543.1.2 LineCode=350_AL_2PH_12KV_2 Length=0.127398 units=km
New Line.84028502$P5554320-A phases=3 Bus1=84028505.1.2.3 Bus2=84028788.1.2.3 LineCode=1/0_CLP_3PH_12KV_3 Length=0.004504 units=km
New Line.219988478$P5567084-1 phases=3 Bus1=219988481.1.2.3 Bus2=94944841.1.2.3 LineCode=2_CLP_3PH_12KV_3 Length=0.002947 units=km
New Line.218387885$P5554333-A phases=3 Bus1=218387888.1.2.3 Bus2=151523112.1.2.3 LineCode=1/0_CLP_3PH_12KV_3 Length=0.002679 units=km
New Line.173083513$PME7384-4 phases=3 Bus1=173083516.1.2.3 Bus2=173083010.1.2.3 LineCode=1/0_JCN_3PH_12KV_3 Length=0.002819 units=km
New Line.P5657088-2$179585040 phases=1 Bus1=179584486.1 Bus2=179585043.1 LineCode=1/0_JCN_1PH_12KV_1 Length=0.002337 units=km
New Line.FC8281-1$219898729 phases=1 Bus1=219898227.1 Bus2=219898732.1 LineCode=1/0_JCN_1PH_12KV_1 Length=0.004938 units=km
New Line.B5132252-2$B5132251-2 phases=1 Bus1=33139140.2 Bus2=33139212.2 LineCode=350_CLP_1PH_12KV_1 Length=0.134454 units=km
New Line.B5377092-2$PH430 phases=1 Bus1=33199731.2 Bus2=33139716.2 LineCode=350_CLP_1PH_12KV_1 Length=0.118888 units=km
New Line.ND33230543$ND33230544 phases=2 Bus1=33230543.1.2 Bus2=33230544.1.2 LineCode=350_AL_2PH_12KV_2 Length=0.009218 units=km
New Line.PS0574$ND83643674 phases=4 Bus1=33228669.0.1.2.3 Bus2=83643674.0.1.2.3 LineCode=336_ACSR_3PH_336_ACSR_N_12KV_4 Length=0.008673 units=km
New Line.219988448$P5554318-B phases=1 Bus1=151522565.1 Bus2=219988451.1 LineCode=2_CLP_1PH_12KV_1 Length=0.002635 units=km
New Line.B5151504-2$B5151503-1 phases=1 Bus1=33139347.1 Bus2=33139428.1 LineCode=350_CLP_1PH_12KV_1 Length=0.115638 units=km
New Line.B5161809-1$ND33230544 phases=1 Bus1=33230544.1 Bus2=33139635.1 LineCode=350_AL_1PH_12KV_1 Length=0.026081 units=km
New Line.ND83643674$ND33230377 phases=4 Bus1=83643674.0.1.2.3 Bus2=33230377.0.1.2.3 LineCode=336_ACSR_3PH_336_ACSR_N_12KV_4 Length=0.10457 units=km
New Line.GS6169-2$J450-1P phases=3 Bus1=91195048.1.2.3 Bus2=91195383.1.2.3 LineCode=1000_CLP_3PH_12KV_3 Length=0.115152 units=km
New Line.GS5906-2$J322-2P phases=3 Bus1=84027872.1.2.3 Bus2=103214919.1.2.3 LineCode=1/0_CLP_3PH_12KV_3 Length=0.11937 units=km
New Line.GS6169-1$GS6739-2 phases=3 Bus1=91195040.1.2.3 Bus2=139671809.1.2.3 LineCode=1000_CLP_3PH_12KV_3 Length=0.434733 units=km
New Line.179585040$179585065 phases=1 Bus1=179585042.1 Bus2=179585067.1 LineCode=1/0_JCN_1PH_12KV_1 Length=0.071133 units=km
New Line.219898729$219898754 phases=1 Bus1=219898731.1 Bus2=219898756.1 LineCode=1/0_JCN_1PH_12KV_1 Length=0.254046 units=km
New Line.B5132014-2$B5132015-1 phases=1 Bus1=33138879.3 Bus2=33138960.3 LineCode=2_CLP_1PH_12KV_1 Length=0.091661 units=km
New Line.ND33230782$H6705Y phases=4 Bus1=33230782.0.1.2.3 Bus2=33139088.0.1.2.3 LineCode=336_ACSR_3PH_336_ACSR_N_12KV_4 Length=0.070719 units=km
New Line.ND33230782$BF30450 phases=2 Bus1=33230782.2.3 Bus2=33228621.2.3 LineCode=4_ACSR_2PH_12KV_2 Length=0.008156 units=km
New Line.H9456Y$H9457Y phases=2 Bus1=33138601.1.2 Bus2=33138626.1.2 LineCode=4_ACSR_2PH_12KV_2 Length=0.103916 units=km
New Line.H6705Y$965421E phases=4 Bus1=33139088.0.1.2.3 Bus2=33199688.0.1.2.3 LineCode=336_ACSR_3PH_336_ACSR_N_12KV_4 Length=0.079229 units=km
New Line.H9457Y$58YPH phases=2 Bus1=33138626.1.2 Bus2=236484833.1.2 LineCode=4_ACSR_2PH_12KV_2 Length=0.046622 units=km
New Line.BF30450$4944479E phases=2 Bus1=33228622.2.3 Bus2=242604317.2.3 LineCode=4_ACSR_2PH_12KV_2 Length=0.19493 units=km
New Line.965421E$965423E phases=4 Bus1=33199688.0.1.2.3 Bus2=33139117.0.1.2.3 LineCode=336_ACSR_3PH_336_ACSR_N_12KV_4 Length=0.088452 units=km
New Line.4944479E$4691936E phases=2 Bus1=242604317.2.3 Bus2=33139061.2.3 LineCode=4_ACSR_2PH_12KV_2 Length=0.07426 units=km
New Line.965423E$ND33230906 phases=4 Bus1=33139117.0.1.2.3 Bus2=33230906.0.1.2.3 LineCode=336_ACSR_3PH_336_ACSR_N_12KV_4 Length=0.046342 units=km
New Line.ND33230906$ND33230907 phases=4 Bus1=33230906.0.1.2.3 Bus2=33230907.0.1.2.3 LineCode=336_ACSR_3PH_336_ACSR_N_12KV_4 Length=0.091121 units=km
New Line.ND33230907$ND33278762 phases=4 Bus1=33230907.0.1.2.3 Bus2=33278762.0.1.2.3 LineCode=336_ACSR_3PH_336_ACSR_N_12KV_4 Length=0.137328 units=km
New Line.ND33278762$965429E phases=4 Bus1=33278762.0.1.2.3 Bus2=33199743.0.1.2.3 LineCode=336_ACSR_3PH_336_ACSR_N_12KV_4 Length=0.139671 units=km
New Line.ND33278762$ND33278763 phases=4 Bus1=33278762.0.1.2.3 Bus2=33278763.0.1.2.3 LineCode=336_ACSR_3PH_336_ACSR_N_12KV_4 Length=0.047451 units=km
New Line.ND33278763$PH430 phases=3 Bus1=33278763.0.2.3 Bus2=33199730.0.2.3 LineCode=336_ACSR_1PH_336_ACSR_N_12KV_3_N Length=0.046674 units=km
New Line.PS0574$ND33278763 phases=4 Bus1=33278763.0.1.2.3 Bus2=33228668.0.1.2.3 LineCode=336_ACSR_3PH_336_ACSR_N_12KV_4 Length=0.046674 units=km
New Line.ND33230377$1483189E phases=4 Bus1=33230377.0.1.2.3 Bus2=33199791.0.1.2.3 LineCode=336_ACSR_3PH_336_ACSR_N_12KV_4 Length=0.065106 units=km
New Line.ND33230377$PS2193 phases=4 Bus1=33230377.0.1.2.3 Bus2=33228702.0.1.2.3 LineCode=336_ACSR_3PH_336_ACSR_N_12KV_4 Length=0.02322 units=km
New Line.B5561675-1$ND95198539 phases=1 Bus1=95198539.1 Bus2=95198449.1 LineCode=2_CLP_1PH_12KV_1 Length=0.079935 units=km
New Line.ND164433498$B5571884-1 phases=1 Bus1=164433498.2 Bus2=164433173.2 LineCode=2_CLP_1PH_12KV_1 Length=0.135147 units=km
New Line.ND164433498$ND164433461 phases=1 Bus1=164433498.2 Bus2=164433461.2 LineCode=2_CLP_1PH_12KV_1 Length=0.277647 units=km
New Line.165682881$P5643148-A phases=3 Bus1=165682884.1.2.3 Bus2=165682723.1.2.3 LineCode=1/0_JCN_3PH_12KV_3 Length=0.00199 units=km
New Line.176505787$P5653895-2 phases=1 Bus1=176505790.2 Bus2=176505549.2 LineCode=1/0_JCN_1PH_12KV_1 Length=0.003733 units=km
New Line.176505812$P5653894-1 phases=1 Bus1=176505815.2 Bus2=176505608.2 LineCode=1/0_JCN_1PH_12KV_1 Length=0.005061 units=km
New Line.178445758$RCS7567-3 phases=1 Bus1=247828760.3 Bus2=178445761.3 LineCode=1/0_JCN_1PH_12KV_1 Length=0.003648 units=km
New Line.P5650376-1$185932106 phases=3 Bus1=185932109.1.2.3 Bus2=185932051.1.2.3 LineCode=1/0_JCN_3PH_12KV_3 Length=0.006305 units=km
New Line.219898829$219898854 phases=1 Bus1=219898831.1 Bus2=219898856.1 LineCode=1/0_JCN_1PH_12KV_1 Length=0.059336 units=km
New Line.B5203102-2$B5170109-1 phases=1 Bus1=33140592.3 Bus2=33140673.3 LineCode=2_CLP_1PH_12KV_1 Length=0.210465 units=km
New Line.B5132479-1$B5132478-2 phases=1 Bus1=33167949.1 Bus2=33168012.1 LineCode=2_CLP_1PH_12KV_1 Length=0.145269 units=km
New Line.B5571215-1$ND147456298 phases=1 Bus1=147456298.2 Bus2=91221537.2 LineCode=2_CLP_1PH_12KV_1 Length=0.140446 units=km
New Line.ND147456298$B5571216-2 phases=1 Bus1=147456298.2 Bus2=91221614.2 LineCode=2_CLP_1PH_12KV_1 Length=0.105524 units=km
New Line.ND95198433$B5561676-2 phases=1 Bus1=95198433.1 Bus2=95198214.1 LineCode=2_CLP_1PH_12KV_1 Length=0.010384 units=km
New Line.ND95198433$B5561677-1 phases=1 Bus1=95198433.1 Bus2=95198362.1 LineCode=2_CLP_1PH_12KV_1 Length=0.084157 units=km
New Line.ND164433461$B5571885-2 phases=1 Bus1=164433461.2 Bus2=164433318.2 LineCode=2_CLP_1PH_12KV_1 Length=0.051461 units=km
New Line.ND164433461$B5571886-2 phases=1 Bus1=164433461.2 Bus2=164433386.2 LineCode=2_CLP_1PH_12KV_1 Length=0.142072 units=km
New Line.178536283$J338-1P phases=3 Bus1=178536286.1.2.3 Bus2=178536128.1.2.3 LineCode=1/0_JCN_3PH_12KV_3 Length=0.001769 units=km
New Line.179585142$179585167 phases=1 Bus1=179585144.1 Bus2=179585169.1 LineCode=1/0_JCN_1PH_12KV_1 Length=0.14559 units=km
New Line.215423525$215423552 phases=1 Bus1=215423527.3 Bus2=215423554.3 LineCode=1/0_JCN_1PH_12KV_1 Length=0.015722 units=km
New Line.219898879$219898904 phases=1 Bus1=219898881.1 Bus2=219898906.1 LineCode=1/0_JCN_1PH_12KV_1 Length=0.053637 units=km
New Line.ND241246841$241246861 phases=1 Bus1=241246863.2 Bus2=241246841.2 LineCode=1/0_JCN_1PH_12KV_1 Length=0.133954 units=km
New Line.B5196151-1$B5601569-1 phases=1 Bus1=144288187.1 Bus2=33140952.1 LineCode=2_CLP_1PH_12KV_1 Length=0.166264 units=km
New Line.FD30919$B5009944-2 phases=1 Bus1=33199986.3 Bus2=33169270.3 LineCode=2_CLP_1PH_12KV_1 Length=0.251384 units=km
New Line.ND33230878$FD5234 phases=3 Bus1=33230878.0.1.2 Bus2=33200363.0.1.2 LineCode=1/0_ACSR_1PH_1/0_ACSR_N_12KV_3_N Length=0.003754 units=km
New Line.2064829E$P5452317-1 phases=3 Bus1=33168081.1.2.3 Bus2=33227798.1.2.3 LineCode=2_CLP_3PH_12KV_3 Length=0.157043 units=km
New Line.P5653890-1$173083823 phases=1 Bus1=173083290.3 Bus2=173083826.3 LineCode=1/0_JCN_1PH_12KV_1 Length=0.002838 units=km
New Line.178445758$178017604 phases=1 Bus1=178445760.3 Bus2=178017606.3 LineCode=1/0_JCN_1PH_12KV_1 Length=0.149617 units=km