! OpenDSS script generated from multiconductor network
Clear

New Circuit.mc_network basekv=12.0 pu=1.000000 angle=0.00 frequency=60.0 phases=3 Mvasc3=143993 Mvasc1=47997.6
~ bus1=-8888882150271.1.2.3

! Line codes
New LineCode.1000_JCN_3PH_12KV_3 nphases=3 units=km Rmatrix=[ 0.027473 | 0 0.027473 | 0 0 0.027473 ] Xmatrix=[ 0.041587 | 0 0.041587 | 0 0 0.041587 ] Cmatrix=[ 0 | 0 0 | 0 0 0 ]
New LineCode.1000_CLP_3PH_12KV_3 nphases=3 units=km Rmatrix=[ 0.028769 | 0 0.028769 | 0 0 0.028769 ] Xmatrix=[ 0.043547 | 0 0.043547 | 0 0 0.043547 ] Cmatrix=[ 0 | 0 0 | 0 0 0 ]
New LineCode.1/0_JCN_3PH_12KV_3 nphases=3 units=km Rmatrix=[ 0.000757 | 0 0.000757 | 0 0 0.000757 ] Xmatrix=[ 0.000231 | 0 0.000231 | 0 0 0.000231 ] Cmatrix=[ 0 | 0 0 | 0 0 0 ]
New LineCode.653_ACSR_3PH_653_ACSR_N_12KV_4 nphases=4 units=km Rmatrix=[ 0.007653 | 0 0.007653 | 0 0 0.007653 | 0 0 0 0.007653 ] Xmatrix=[ 0.026022 | 0 0.026022 | 0 0 0.026022 | 0 0 0 0.026022 ] Cmatrix=[ 0 | 0 0 | 0 0 0 | 0 0 0 0 ]
New LineCode.2_CLP_3PH_12KV_3 nphases=3 units=km Rmatrix=[ 0.005221 | 0 0.005221 | 0 0 0.005221 ] Xmatrix=[ 0.0011 | 0 0.0011 | 0 0 0.0011 ] Cmatrix=[ 0 | 0 0 | 0 0 0 ]
New LineCode.750_CLP_3PH_12KV_3 nphases=3 units=km Rmatrix=[ 0.016363 | 0 0.016363 | 0 0 0.016363 ] Xmatrix=[ 0.020096 | 0 0.020096 | 0 0 0.020096 ] Cmatrix=[ 0 | 0 0 | 0 0 0 ]
New LineCode.1/0_CLP_2PH_12KV_2 nphases=2 units=km Rmatrix=[ 0.02418 | 0 0.02418 ] Xmatrix=[ 0.007391 | 0 0.007391 ] Cmatrix=[ 0 | 0 0 ]
New LineCode.350_AL_1PH_12KV_1 nphases=1 units=km Rmatrix=[ 0.091131 ] Xmatrix=[ 0.069241 ] Cmatrix=[ 0 ]
New LineCode.350_CLP_3PH_12KV_3 nphases=3 units=km Rmatrix=[ 0.053014 | 0 0.053014 | 0 0 0.053014 ] Xmatrix=[ 0.04028 | 0 0.04028 | 0 0 0.04028 ] Cmatrix=[ 0 | 0 0 | 0 0 0 ]
New LineCode.350_AL_3PH_12KV_3 nphases=3 units=km Rmatrix=[ 0.010829 | 0 0.010829 | 0 0 0.010829 ] Xmatrix=[ 0.008227 | 0 0.008227 | 0 0 0.008227 ] Cmatrix=[ 0 | 0 0 | 0 0 0 ]
New LineCode.1/0_ACSR_2PH_1/0_ACSR_N_12KV_3_N nphases=3 units=km Rmatrix=[ 0.00087 | 0 0.00087 | 0 0 0.00087 ] Xmatrix=[ 0.000629 | 0 0.000629 | 0 0 0.000629 ] Cmatrix=[ 0 | 0 0 | 0 0 0 ]
New LineCode.2_CLP_2PH_12KV_2 nphases=2 units=km Rmatrix=[ 0.244643 | 0 0.244643 ] Xmatrix=[ 0.051566 | 0 0.051566 ] Cmatrix=[ 0 | 0 0 ]
New LineCode.1/0_ACSR_3PH_1/0_ACSR_N_12KV_3_N nphases=3 units=km Rmatrix=[ 0.063207 | 0 0.063207 | 0 0 0.063207 ] Xmatrix=[ 0.045679 | 0 0.045679 | 0 0 0.045679 ] Cmatrix=[ 0 | 0 0 | 0 0 0 ]
New LineCode.2_CLP_1PH_12KV_1 nphases=1 units=km Rmatrix=[ 0.084161 ] Xmatrix=[ 0.01774 ] Cmatrix=[ 0 ]
New LineCode.1/0_ACSR_3PH_12KV_2 nphases=2 units=km Rmatrix=[ 0.120639 | 0 0.120639 ] Xmatrix=[ 0.096053 | 0 0.096053 ] Cmatrix=[ 0 | 0 0 ]
New LineCode.1/0_ACSR_3PH_1/0_ACSR_N_12KV_2 nphases=2 units=km Rmatrix=[ 0.063207 | 0 0.063207 ] Xmatrix=[ 0.045679 | 0 0.045679 ] Cmatrix=[ 0 | 0 0 ]
New LineCode.350_PILC_3PH_12KV_3 nphases=3 units=km Rmatrix=[ 0.001359 | 0 0.001359 | 0 0 0.001359 ] Xmatrix=[ 0.001166 | 0 0.001166 | 0 0 0.001166 ] Cmatrix=[ 0 | 0 0 | 0 0 0 ]
New LineCode.1/0_AL_1PH_12KV_1 nphases=1 units=km Rmatrix=[ 0.063301 ] Xmatrix=[ 0.019348 ] Cmatrix=[ 0 ]
New LineCode.336_ACSR_3PH_336_ACSR_N_12KV_4 nphases=4 units=km Rmatrix=[ 0.010508 | 0 0.010508 | 0 0 0.010508 | 0 0 0 0.010508 ] Xmatrix=[ 0.020955 | 0 0.020955 | 0 0 0.020955 | 0 0 0 0.020955 ] Cmatrix=[ 0 | 0 0 | 0 0 0 | 0 0 0 0 ]
New LineCode.350_CLP_1PH_12KV_1 nphases=1 units=km Rmatrix=[ 0.041059 ] Xmatrix=[ 0.031196 ] Cmatrix=[ 0 ]
New LineCode.350_AL_2PH_12KV_2 nphases=2 units=km Rmatrix=[ 0.002085 | 0 0.002085 ] Xmatrix=[ 0.001584 | 0 0.001584 ] Cmatrix=[ 0 | 0 0 ]
New LineCode.2_AL_2PH_12KV_2 nphases=2 units=km Rmatrix=[ 0.003213 | 0 0.003213 ] Xmatrix=[ 0.000677 | 0 0.000677 ] Cmatrix=[ 0 | 0 0 ]
New LineCode.2_AL_1PH_12KV_1 nphases=1 units=km Rmatrix=[ 0.038 ] Xmatrix=[ 0.00801 ] Cmatrix=[ 0 ]
New LineCode.350_JCN_3PH_12KV_3 nphases=3 units=km Rmatrix=[ 0.004251 | 0 0.004251 | 0 0 0.004251 ] Xmatrix=[ 0.00323 | 0 0.00323 | 0 0 0.00323 ] Cmatrix=[ 0 | 0 0 | 0 0 0 ]
New LineCode.1/0_CLP_3PH_12KV_3 nphases=3 units=km Rmatrix=[ 0.002173 | 0 0.002173 | 0 0 0.002173 ] Xmatrix=[ 0.000664 | 0 0.000664 | 0 0 0.000664 ] Cmatrix=[ 0 | 0 0 | 0 0 0 ]
New LineCode.1/0_JCN_2PH_12KV_2 nphases=2 units=km Rmatrix=[ 0.00111 | 0 0.00111 ] Xmatrix=[ 0.000339 | 0 0.000339 ] Cmatrix=[ 0 | 0 0 ]
New LineCode.6_CU_3PH_12KV_3 nphases=3 units=km Rmatrix=[ 0.047627 | 0 0.047627 | 0 0 0.047627 ] Xmatrix=[ 0.016882 | 0 0.016882 | 0 0 0.016882 ] Cmatrix=[ 0 | 0 0 | 0 0 0 ]
New LineCode.1/0_CLP_1PH_12KV_1 nphases=1 units=km Rmatrix=[ 0.043058 ] Xmatrix=[ 0.013161 ] Cmatrix=[ 0 ]
New LineCode.2_ACSR_3PH_12KV_3 nphases=3 units=km Rmatrix=[ 0.001282 | 0 0.001282 | 0 0 0.001282 ] Xmatrix=[ 0.000689 | 0 0.000689 | 0 0 0.000689 ] Cmatrix=[ 0 | 0 0 | 0 0 0 ]
New LineCode.4_ACSR_3PH_12KV_3 nphases=3 units=km Rmatrix=[ 0.123472 | 0 0.123472 | 0 0 0.123472 ] Xmatrix=[ 0.045307 | 0 0.045307 | 0 0 0.045307 ] Cmatrix=[ 0 | 0 0 | 0 0 0 ]
New LineCode.336_ACSR_3PH_12KV_3 nphases=3 units=km Rmatrix=[ 0.006531 | 0 0.006531 | 0 0 0.006531 ] Xmatrix=[ 0.014626 | 0 0.014626 | 0 0 0.014626 ] Cmatrix=[ 0 | 0 0 | 0 0 0 ]
New LineCode.4_ACSR_2PH_12KV_2 nphases=2 units=km Rmatrix=[ 0.006718 | 0 0.006718 ] Xmatrix=[ 0.002465 | 0 0.002465 ] Cmatrix=[ 0 | 0 0 ]
New LineCode.1/0_ACSR_3PH_12KV_3 nphases=3 units=km Rmatrix=[ 0.120639 | 0 0.120639 | 0 0 0.120639 ] Xmatrix=[ 0.096053 | 0 0.096053 | 0 0 0.096053 ] Cmatrix=[ 0 | 0 0 | 0 0 0 ]
New LineCode.4_ACSR_2PH_4_ACSR_N_12KV_3_N nphases=3 units=km Rmatrix=[ 0.003307 | 0 0.003307 | 0 0 0.003307 ] Xmatrix=[ 0.001112 | 0 0.001112 | 0 0 0.001112 ] Cmatrix=[ 0 | 0 0 | 0 0 0 ]
New LineCode.477_ACSR_3PH_477_ACSR_N_12KV_4 nphases=4 units=km Rmatrix=[ 0.004067 | 0 0.004067 | 0 0 0.004067 | 0 0 0 0.004067 ] Xmatrix=[ 0.01252 | 0 0.01252 | 0 0 0.01252 | 0 0 0 0.01252 ] Cmatrix=[ 0 | 0 0 | 0 0 0 | 0 0 0 0 ]
New LineCode.336_ACSR_1PH_336_ACSR_N_12KV_3_N nphases=3 units=km Rmatrix=[ 0.000616 | 0 0.000616 | 0 0 0.000616 ] Xmatrix=[ 0.001228 | 0 0.001228 | 0 0 0.001228 ] Cmatrix=[ 0 | 0 0 | 0 0 0 ]
New LineCode.6_CU_3PH_6_CU_N_12KV_4 nphases=4 units=km Rmatrix=[ 0.013423 | 0 0.013423 | 0 0 0.013423 | 0 0 0 0.013423 ] Xmatrix=[ 0.004335 | 0 0.004335 | 0 0 0.004335 | 0 0 0 0.004335 ] Cmatrix=[ 0 | 0 0 | 0 0 0 | 0 0 0 0 ]
New LineCode.6_CU_2PH_12KV_2 nphases=2 units=km Rmatrix=[ 0.138215 | 0 0.138215 ] Xmatrix=[ 0.048991 | 0 0.048991 ] Cmatrix=[ 0 | 0 0 ]
New LineCode.UNK_UNK_1PH_12KV_1 nphases=1 units=km Rmatrix=[ 0.132551 ] Xmatrix=[ 0.027939 ] Cmatrix=[ 0 ]
New LineCode.1/0_JCN_1PH_12KV_1 nphases=1 units=km Rmatrix=[ 0.003512 ] Xmatrix=[ 0.001073 ] Cmatrix=[ 0 ]
New LineCode.750_CLP_2PH_12KV_2 nphases=2 units=km Rmatrix=[ 0.000332 | 0 0.000332 ] Xmatrix=[ 0.000407 | 0 0.000407 ] Cmatrix=[ 0 | 0 0 ]
New LineCode.954_ACSR_3PH_954_ACSR_N_12KV_4 nphases=4 units=km Rmatrix=[ 1e-05 | 0 1e-05 | 0 0 1e-05 | 0 0 0 1e-05 ] Xmatrix=[ 1e-05 | 0 1e-05 | 0 0 1e-05 | 0 0 0 1e-05 ] Cmatrix=[ 0 | 0 0 | 0 0 0 | 0 0 0 0 ]
New LineCode.1/0_ATW_3PH_1/0_ATW_N_12KV_4 nphases=4 units=km Rmatrix=[ 1e-05 | 0 1e-05 | 0 0 1e-05 | 0 0 0 1e-05 ] Xmatrix=[ 1e-05 | 0 1e-05 | 0 0 1e-05 | 0 0 0 1e-05 ] Cmatrix=[ 0 | 0 0 | 0 0 0 | 0 0 0 0 ]
New LineCode.1/0_ATW_2PH_1/0_ATW_N_12KV_3_N nphases=3 units=km Rmatrix=[ 1e-05 | 0 1e-05 | 0 0 1e-05 ] Xmatrix=[ 1e-05 | 0 1e-05 | 0 0 1e-05 ] Cmatrix=[ 0 | 0 0 | 0 0 0 ]
New LineCode.1/0_ATW_2PH_12KV_2 nphases=2 units=km Rmatrix=[ 1e-05 | 0 1e-05 ] Xmatrix=[ 1e-05 | 0 1e-05 ] Cmatrix=[ 0 | 0 0 ]
New LineCode.1/0_ATW_3PH_12KV_3 nphases=3 units=km Rmatrix=[ 1e-05 | 0 1e-05 | 0 0 1e-05 ] Xmatrix=[ 1e-05 | 0 1e-05 | 0 0 1e-05 ] Cmatrix=[ 0 | 0 0 | 0 0 0 ]
New LineCode.336_ATW_3PH_336_ATW_N_12KV_4 nphases=4 units=km Rmatrix=[ 1e-05 | 0 1e-05 | 0 0 1e-05 | 0 0 0 1e-05 ] Xmatrix=[ 1e-05 | 0 1e-05 | 0 0 1e-05 | 0 0 0 1e-05 ] Cmatrix=[ 0 | 0 0 | 0 0 0 | 0 0 0 0 ]

! Lines
New Line.GS5709-3$ND73753845 phases=3 Bus1=44609019.1.2.3 Bus2=73753845.1.2.3 LineCode=1000_JCN_3PH_12KV_3 Length=0.324583 units=km
New Line.ND73753845$GS4421-2 phases=3 Bus1=73753845.1.2.3 Bus2=169198180.1.2.3 LineCode=1000_CLP_3PH_12KV_3 Length=0.101684 units=km
New Line.ND73753845$ND186258888 phases=3 Bus1=73753845.1.2.3 Bus2=186258888.1.2.3 LineCode=1000_JCN_3PH_12KV_3 Length=0.339313 units=km
New Line.ND186258888$GS7454-1 phases=3 Bus1=186258888.1.2.3 Bus2=186258117.1.2.3 LineCode=1000_JCN_3PH_12KV_3 Length=0.189857 units=km
New Line.GS3543-2$ND186258888 phases=3 Bus1=186258888.1.2.3 Bus2=33700632.1.2.3 LineCode=1000_CLP_3PH_12KV_3 Length=0.042631 units=km
New Line.GS7454-2$V5637130 phases=3 Bus1=186258126.1.2.3 Bus2=186258547.1.2.3 LineCode=1/0_JCN_3PH_12KV_3 Length=0.00657 units=km
New Line.423EPH$GS7454-4 phases=3 Bus1=186258144.1.2.3 Bus2=44609448.1.2.3 LineCode=1000_JCN_3PH_12KV_3 Length=0.037286 units=km
New Line.423EPH$4111766E phases=4 Bus1=44609447.0.1.2.3 Bus2=186258671.0.1.2.3 LineCode=653_ACSR_3PH_653_ACSR_N_12KV_4 Length=0.074908 units=km
New Line.4111766E$4111165E phases=4 Bus1=186258671.0.1.2.3 Bus2=151436549.0.1.2.3 LineCode=653_ACSR_3PH_653_ACSR_N_12KV_4 Length=0.06096 units=km
New Line.4111165E$ND151436630 phases=4 Bus1=151436549.0.1.2.3 Bus2=151436630.0.1.2.3 LineCode=653_ACSR_3PH_653_ACSR_N_12KV_4 Length=0.036456 units=km
New Line.ND151436630$4111160E phases=4 Bus1=151436630.0.1.2.3 Bus2=151436560.0.1.2.3 LineCode=653_ACSR_3PH_653_ACSR_N_12KV_4 Length=0.135204 units=km
New Line.4111160E$ND244428679 phases=4 Bus1=151436560.0.1.2.3 Bus2=244428679.0.1.2.3 LineCode=653_ACSR_3PH_653_ACSR_N_12KV_4 Length=0.023391 units=km
New Line.4117199E$177574309 phases=3 Bus1=44608090.1.2.3 Bus2=177574311.1.2.3 LineCode=2_CLP_3PH_12KV_3 Length=0.061182 units=km
New Line.ND244428679$559E phases=4 Bus1=244428679.0.1.2.3 Bus2=244428692.0.1.2.3 LineCode=653_ACSR_3PH_653_ACSR_N_12KV_4 Length=0.002325 units=km
New Line.ND244428679$ND44609983 phases=4 Bus1=244428679.0.1.2.3 Bus2=44609983.0.1.2.3 LineCode=653_ACSR_3PH_653_ACSR_N_12KV_4 Length=0.021207 units=km
New Line.ND44609983$4207948E phases=4 Bus1=44609983.0.1.2.3 Bus2=44579274.0.1.2.3 LineCode=653_ACSR_3PH_653_ACSR_N_12KV_4 Length=0.040605 units=km
New Line.559E$244428775 phases=3 Bus1=244428697.1.2.3 Bus2=244428777.1.2.3 LineCode=1/0_JCN_3PH_12KV_3 Length=0.049633 units=km
New Line.177574309$P5462243-1 phases=3 Bus1=177574312.1.2.3 Bus2=44608106.1.2.3 LineCode=2_CLP_3PH_12KV_3 Length=0.002019 units=km
New Line.ND44632431$4207948E phases=3 Bus1=44579275.1.2.3 Bus2=44632431.1.2.3 LineCode=750_CLP_3PH_12KV_3 Length=0.321745 units=km
New Line.244428775$P5771910-1 phases=3 Bus1=244428778.1.2.3 Bus2=244428731.1.2.3 LineCode=1/0_JCN_3PH_12KV_3 Length=0.00149 units=km
New Line.ND44632432$ND44632431 phases=3 Bus1=44632431.1.2.3 Bus2=44632432.1.2.3 LineCode=1000_CLP_3PH_12KV_3 Length=0.170274 units=km
New Line.ND44632431$GS4827-1 phases=3 Bus1=44632431.1.2.3 Bus2=62044948.1.2.3 LineCode=1000_CLP_3PH_12KV_3 Length=0.014848 units=km
New Line.176789200$ND44632432 phases=2 Bus1=44632432.2.3 Bus2=176789202.2.3 LineCode=1/0_CLP_2PH_12KV_2 Length=0.034288 units=km
New Line.ND44632432$GS5705-2 phases=3 Bus1=44632432.1.2.3 Bus2=44609330.1.2.3 LineCode=1000_CLP_3PH_12KV_3 Length=0.339865 units=km
New Line.P5391957-1$176789200 phases=2 Bus1=176789203.2.3 Bus2=44609493.2.3 LineCode=1/0_CLP_2PH_12KV_2 Length=0.002288 units=km
New Line.GS5705-1$4020402E phases=3 Bus1=44609322.1.2.3 Bus2=44607159.1.2.3 LineCode=750_CLP_3PH_12KV_3 Length=0.145316 units=km
New Line.4020409E$PME4370-4 phases=3 Bus1=44579318.1.2.3 Bus2=148688991.1.2.3 LineCode=750_CLP_3PH_12KV_3 Length=0.096767 units=km
New Line.B5056541-2$1236908E phases=1 Bus1=44579305.3 Bus2=44579373.3 LineCode=350_AL_1PH_12KV_1 Length=0.410424 units=km
New Line.2120354E$GS0187-4 phases=3 Bus1=44579348.1.2.3 Bus2=94804658.1.2.3 LineCode=350_CLP_3PH_12KV_3 Length=0.06022 units=km
New Line.1452116E$P5170129-1 phases=3 Bus1=44579458.1.2.3 Bus2=44579474.1.2.3 LineCode=350_AL_3PH_12KV_3 Length=0.022857 units=km
New Line.ND44632467$BF35068 phases=3 Bus1=44632467.0.1.2 Bus2=214324014.0.1.2 LineCode=1/0_ACSR_2PH_1/0_ACSR_N_12KV_3_N Length=0.001363 units=km
New Line.ND44633940$GS0187-3 phases=2 Bus1=94804650.2.3 Bus2=44633940.2.3 LineCode=2_CLP_2PH_12KV_2 Length=0.104973 units=km
New Line.BF35068$ND237186772 phases=3 Bus1=214324015.0.1.2 Bus2=237186772.0.1.2 LineCode=1/0_ACSR_3PH_1/0_ACSR_N_12KV_3_N Length=0.099169 units=km
New Line.ND44633940$BS0209-1 phases=1 Bus1=44633940.2 Bus2=44579634.2 LineCode=2_CLP_1PH_12KV_1 Length=0.005628 units=km
New Line.ND44633940$BS1246-1 phases=1 Bus1=44633940.3 Bus2=44579681.3 LineCode=2_CLP_1PH_12KV_1 Length=0.033701 units=km
New Line.ND237186772$PH560E phases=2 Bus1=237186772.1.2 Bus2=44607188.1.2 LineCode=1/0_ACSR_3PH_12KV_2 Length=0.004536 units=km
New Line.ND237186772$4512387E phases=2 Bus1=237186772.1.2 Bus2=44609661.1.2 LineCode=1/0_ACSR_3PH_1/0_ACSR_N_12KV_2 Length=0.08314 units=km
New Line.ND94804603$GS0187-1 phases=3 Bus1=94804642.1.2.3 Bus2=94804603.1.2.3 LineCode=350_CLP_3PH_12KV_3 Length=0.19675 units=km
New Line.BS0218-1$ND94804603 phases=3 Bus1=94804603.1.2.3 Bus2=44589467.1.2.3 LineCode=350_PILC_3PH_12KV_3 Length=0.011505 units=km
New Line.BS0209-1$B5132593-1 phases=1 Bus1=44579633.2 Bus2=44590237.2 LineCode=2_CLP_1PH_12KV_1 Length=0.030558 units=km
New Line.BS1246-1$B5159058-1 phases=1 Bus1=44579680.3 Bus2=44590453.3 LineCode=2_CLP_1PH_12KV_1 Length=0.379478 units=km
New Line.4512387E$4211123E phases=3 Bus1=44609661.0.1.2 Bus2=44607475.0.1.2 LineCode=1/0_ACSR_2PH_1/0_ACSR_N_12KV_3_N Length=0.10638 units=km
New Line.ND44634684$ND94804603 phases=3 Bus1=94804603.1.2.3 Bus2=44634684.1.2.3 LineCode=350_CLP_3PH_12KV_3 Length=0.498043 units=km
New Line.B5159049-1$PH560E phases=1 Bus1=44607189.2 Bus2=44591079.2 LineCode=1/0_AL_1PH_12KV_1 Length=0.157564 units=km
New Line.ND44634684$ND44633057 phases=3 Bus1=44634684.1.2.3 Bus2=44633057.1.2.3 LineCode=350_CLP_3PH_12KV_3 Length=0.386134 units=km
New Line.1598106E$ND44634110 phases=4 Bus1=44591216.0.1.2.3 Bus2=44634110.0.1.2.3 LineCode=336_ACSR_3PH_336_ACSR_N_12KV_4 Length=0.05627 units=km
New Line.ND44633057$BS1502-1 phases=3 Bus1=44633057.1.2.3 Bus2=44590525.1.2.3 LineCode=350_CLP_3PH_12KV_3 Length=0.011874 units=km
New Line.B5158961-2$4211123E phases=1 Bus1=44607476.1 Bus2=44591016.1 LineCode=1/0_AL_1PH_12KV_1 Length=0.089845 units=km
New Line.ND44633057$ND44632342 phases=3 Bus1=44633057.1.2.3 Bus2=44632342.1.2.3 LineCode=350_CLP_3PH_12KV_3 Length=0.403413 units=km
New Line.BS0218-1$ND44634000 phases=1 Bus1=44589468.1 Bus2=44634000.1 LineCode=350_CLP_1PH_12KV_1 Length=0.006101 units=km
New Line.ND44632342$ND189259381 phases=3 Bus1=44632342.1.2.3 Bus2=189259381.1.2.3 LineCode=2_CLP_3PH_12KV_3 Length=0.413149 units=km
New Line.ND44634000$B5132592-1 phases=1 Bus1=44634000.1 Bus2=44589517.1 LineCode=350_CLP_1PH_12KV_1 Length=0.076568 units=km
New Line.B5159130-1$ND44634000 phases=1 Bus1=44634000.1 Bus2=44589661.1 LineCode=350_CLP_1PH_12KV_1 Length=0.173193 units=km
New Line.B5132593-2$B5132594-1 phases=1 Bus1=44590246.2 Bus2=44590165.2 LineCode=2_CLP_1PH_12KV_1 Length=0.222453 units=km
New Line.B5159058-2$B5159059-2 phases=1 Bus1=44590462.3 Bus2=44590390.3 LineCode=2_CLP_1PH_12KV_1 Length=0.254565 units=km
New Line.ND44634000$S5132591 phases=1 Bus1=44634000.1 Bus2=44609778.1 LineCode=350_CLP_1PH_12KV_1 Length=0.00503 units=km
New Line.ND189259381$ND189259403 phases=3 Bus1=189259381.1.2.3 Bus2=189259403.1.2.3 LineCode=2_CLP_3PH_12KV_3 Length=0.025855 units=km
New Line.BS1500-1$ND189259381 phases=1 Bus1=189259381.2 Bus2=44579728.2 LineCode=2_CLP_1PH_12KV_1 Length=0.013576 units=km
New Line.BS1502-1$ND44632960 phases=1 Bus1=44590526.3 Bus2=44632960.3 LineCode=350_CLP_1PH_12KV_1 Length=0.010504 units=km
New Line.BS1499-1$ND189259403 phases=1 Bus1=189259403.1 Bus2=44579778.1 LineCode=2_CLP_1PH_12KV_1 Length=0.011322 units=km
New Line.ND189259403$BS1498-1 phases=3 Bus1=189259403.1.2.3 Bus2=44579825.1.2.3 LineCode=2_CLP_3PH_12KV_3 Length=0.034003 units=km
New Line.B5196077-2$ND44632960 phases=1 Bus1=44632960.3 Bus2=44590944.3 LineCode=350_CLP_1PH_12KV_1 Length=0.031324 units=km
New Line.ND44632960$ND44633440 phases=1 Bus1=44632960.3 Bus2=44633440.3 LineCode=350_CLP_1PH_12KV_1 Length=0.068237 units=km
New Line.B5196086-1$BS1500-1 phases=1 Bus1=44579727.2 Bus2=44589395.2 LineCode=2_CLP_1PH_12KV_1 Length=0.339734 units=km
New Line.B5159131-1$B5159130-2 phases=1 Bus1=44589670.1 Bus2=44589733.1 LineCode=350_CLP_1PH_12KV_1 Length=0.17207 units=km
New Line.B5132594-2$B5132595-1 phases=1 Bus1=44590174.2 Bus2=44590093.2 LineCode=2_CLP_1PH_12KV_1 Length=0.155923 units=km
New Line.B5159059-1$B5159060-2 phases=1 Bus1=44590381.3 Bus2=44590318.3 LineCode=2_CLP_1PH_12KV_1 Length=0.185286 units=km
New Line.B5196078-2$ND44633440 phases=1 Bus1=44633440.3 Bus2=44590656.3 LineCode=350_CLP_1PH_12KV_1 Length=0.123814 units=km
New Line.B5196079-1$ND44633440 phases=1 Bus1=44633440.3 Bus2=44590791.3 LineCode=350_CLP_1PH_12KV_1 Length=0.08752 units=km
New Line.B5007051-2$4237510E phases=1 Bus1=44607231.2 Bus2=44591423.2 LineCode=2_CLP_1PH_12KV_1 Length=0.105892 units=km
New Line.BS1498-1$ND189259349 phases=1 Bus1=44579824.3 Bus2=189259349.3 LineCode=2_CLP_1PH_12KV_1 Length=0.035942 units=km
New Line.ND189259479$BS1499-1 phases=1 Bus1=44579777.1 Bus2=189259479.1 LineCode=2_CLP_1PH_12KV_1 Length=0.041412 units=km
New Line.FD408E$ND44632833 phases=3 Bus1=44591483.1.2.3 Bus2=44632833.1.2.3 LineCode=350_AL_3PH_12KV_3 Length=0.048779 units=km
New Line.ND189259303$ND189259479 phases=1 Bus1=189259479.1 Bus2=189259303.1 LineCode=2_CLP_1PH_12KV_1 Length=0.164304 units=km
New Line.ND189259349$B5193442-2 phases=1 Bus1=189259349.3 Bus2=44579880.3 LineCode=2_CLP_1PH_12KV_1 Length=0.214591 units=km
New Line.B5193444-2$ND189259349 phases=1 Bus1=189259349.3 Bus2=44579952.3 LineCode=2_CLP_1PH_12KV_1 Length=0.169489 units=km
New Line.ND189259479$B5193443-2 phases=1 Bus1=189259479.1 Bus2=44580240.1 LineCode=2_CLP_1PH_12KV_1 Length=0.160975 units=km
New Line.B5196077-1$B5196076-2 phases=1 Bus1=44590935.3 Bus2=44590584.3 LineCode=350_CLP_1PH_12KV_1 Length=0.144027 units=km
New Line.ND44632833$ND44632484 phases=2 Bus1=44632833.2.3 Bus2=44632484.2.3 LineCode=350_AL_2PH_12KV_2 Length=0.00942 units=km
New Line.ND44632833$ND44633083 phases=2 Bus1=44632833.1.2 Bus2=44633083.1.2 LineCode=2_CLP_2PH_12KV_2 Length=0.114886 units=km
New Line.ND189259275$ND189259303 phases=1 Bus1=189259303.1 Bus2=189259275.1 LineCode=2_CLP_1PH_12KV_1 Length=0.069454 units=km
New Line.B5159132-2$B5159131-2 phases=1 Bus1=44589742.1 Bus2=44589814.1 LineCode=350_CLP_1PH_12KV_1 Length=0.190334 units=km
New Line.B5132595-2$B5132596-2 phases=1 Bus1=44590102.2 Bus2=44590030.2 LineCode=2_CLP_1PH_12KV_1 Length=0.205421 units=km
New Line.B5196080-2$B5196079-2 phases=1 Bus1=44590800.3 Bus2=44590872.3 LineCode=350_CLP_1PH_12KV_1 Length=0.18109 units=km
New Line.B5007051-1$B5007050-2 phases=1 Bus1=44591414.2 Bus2=44591351.2 LineCode=2_CLP_1PH_12KV_1 Length=0.181938 units=km
New Line.P5383708-1$ND44633083 phases=1 Bus1=44633083.1 Bus2=44592219.1 LineCode=2_CLP_1PH_12KV_1 Length=0.212249 units=km
New Line.ND44632484$X5383704 phases=1 Bus1=44632484.2 Bus2=44609862.2 LineCode=350_AL_1PH_12KV_1 Length=0.619559 units=km
New Line.B5196086-2$ND44632411 phases=1 Bus1=44589404.2 Bus2=44632411.2 LineCode=2_CLP_1PH_12KV_1 Length=0.136963 units=km
New Line.ND44632484$ND44632485 phases=1 Bus1=44632484.3 Bus2=44632485.3 LineCode=2_CLP_1PH_12KV_1 Length=0.161233 units=km
New Line.ND44633083$ND44632849 phases=2 Bus1=44633083.1.2 Bus2=44632849.1.2 LineCode=2_CLP_2PH_12KV_2 Length=0.00838 units=km
New Line.ND44632849$ND239814762 phases=2 Bus1=44632849.1.2 Bus2=239814762.1.2 LineCode=2_CLP_2PH_12KV_2 Length=0.240903 units=km
New Line.B5196085-1$ND189259275 phases=1 Bus1=189259275.1 Bus2=44588963.1 LineCode=2_CLP_1PH_12KV_1 Length=0.194601 units=km
New Line.B5193446-2$ND44632411 phases=1 Bus1=44632411.2 Bus2=44589116.2 LineCode=2_CLP_1PH_12KV_1 Length=0.126607 units=km
New Line.ND44632411$B5193447-1 phases=1 Bus1=44632411.2 Bus2=44589323.2 LineCode=2_CLP_1PH_12KV_1 Length=0.009525 units=km
New Line.ND44632485$P5383706-1 phases=1 Bus1=44632485.3 Bus2=44591571.3 LineCode=2_CLP_1PH_12KV_1 Length=0.12461 units=km
New Line.ND44632849$X5383704 phases=1 Bus1=44632849.1 Bus2=44609863.1 LineCode=2_CLP_1PH_12KV_1 Length=0.006023 units=km
New Line.ND44632485$ND44633244 phases=1 Bus1=44632485.3 Bus2=44633244.3 LineCode=2_CLP_1PH_12KV_1 Length=0.140881 units=km
New Line.ND239814762$186097670 phases=1 Bus1=239814762.1 Bus2=186097672.1 LineCode=2_CLP_1PH_12KV_1 Length=0.099113 units=km
New Line.189006586$ND239814762 phases=1 Bus1=239814762.2 Bus2=189006588.2 LineCode=2_CLP_1PH_12KV_1 Length=0.141685 units=km
New Line.B5193445-2$B5193444-1 phases=1 Bus1=44579943.3 Bus2=44580024.3 LineCode=2_CLP_1PH_12KV_1 Length=0.154261 units=km
New Line.B5193443-1$B5193441-2 phases=1 Bus1=44580231.1 Bus2=44588900.1 LineCode=2_CLP_1PH_12KV_1 Length=0.057097 units=km
New Line.ND44633244$P5383710-2 phases=1 Bus1=44633244.3 Bus2=44591508.3 LineCode=2_CLP_1PH_12KV_1 Length=0.070753 units=km
New Line.P5383711-2$ND44633244 phases=1 Bus1=44633244.3 Bus2=44592084.3 LineCode=2_CLP_1PH_12KV_1 Length=0.125741 units=km
New Line.B5159133-1$B5159132-1 phases=1 Bus1=44589805.1 Bus2=44589877.1 LineCode=350_CLP_1PH_12KV_1 Length=0.120967 units=km
New Line.B5132596-1$B5132597-1 phases=1 Bus1=44590021.2 Bus2=44589949.2 LineCode=2_CLP_1PH_12KV_1 Length=0.183755 units=km
New Line.B5196080-1$B5196081-2 phases=1 Bus1=44590863.3 Bus2=44590728.3 LineCode=350_CLP_1PH_12KV_1 Length=0.184367 units=km
New Line.P5383708-2$P5383703-2 phases=1 Bus1=44592228.1 Bus2=44591652.1 LineCode=2_CLP_1PH_12KV_1 Length=0.079595 units=km
New Line.1654425E$PS7237 phases=4 Bus1=196725353.0.1.2.3 Bus2=44598137.0.1.2.3 LineCode=336_ACSR_3PH_336_ACSR_N_12KV_4 Length=0.064589 units=km
New Line.B5196084-1$B5196085-2 phases=1 Bus1=44588972.1 Bus2=44589035.1 LineCode=2_CLP_1PH_12KV_1 Length=0.126764 units=km
New Line.B5193447-2$B5193438-1 phases=1 Bus1=44589332.2 Bus2=44589251.2 LineCode=2_CLP_1PH_12KV_1 Length=0.09877 units=km
New Line.P5383707-1$189006586 phases=1 Bus1=189006589.2 Bus2=44591715.2 LineCode=2_CLP_1PH_12KV_1 Length=0.001777 units=km
New Line.P5383713-1$186097670 phases=1 Bus1=186097673.1 Bus2=44592291.1 LineCode=2_CLP_1PH_12KV_1 Length=0.003179 units=km
New Line.ND44632935$1654425E phases=4 Bus1=44598137.0.1.2.3 Bus2=44632935.0.1.2.3 LineCode=336_ACSR_3PH_336_ACSR_N_12KV_4 Length=0.074802 units=km
New Line.P5383711-1$P5383712-2 phases=1 Bus1=44592075.3 Bus2=44592156.3 LineCode=2_CLP_1PH_12KV_1 Length=0.122397 units=km
New Line.B5159133-2$B5159134-1 phases=1 Bus1=44589886.1 Bus2=44589589.1 LineCode=350_CLP_1PH_12KV_1 Length=0.123108 units=km
New Line.P5383713-2$186097701 phases=1 Bus1=44592300.1 Bus2=186097704.1 LineCode=2_CLP_1PH_12KV_1 Length=0.164657 units=km
New Line.B5193438-2$B5165404-2 phases=1 Bus1=44589260.2 Bus2=44589188.2 LineCode=2_CLP_1PH_12KV_1 Length=0.107093 units=km
New Line.B5196084-2$ND44632379 phases=1 Bus1=44589044.1 Bus2=44632379.1 LineCode=2_CLP_1PH_12KV_1 Length=0.012489 units=km
New Line.808947H$P5057310-2 phases=1 Bus1=44597732.2 Bus2=72513333.2 LineCode=2_CLP_1PH_12KV_1 Length=0.155419 units=km
New Line.B5193448-1$ND44632379 phases=1 Bus1=44632379.1 Bus2=44580159.1 LineCode=2_CLP_1PH_12KV_1 Length=0.061646 units=km
New Line.P5383712-1$P5383719-2 phases=1 Bus1=44592147.3 Bus2=44592012.3 LineCode=2_CLP_1PH_12KV_1 Length=0.16817 units=km
New Line.B5196082-1$ND44632379 phases=1 Bus1=44632379.1 Bus2=44608154.1 LineCode=2_CLP_1PH_12KV_1 Length=0.061673 units=km
New Line.1452104E$ND44633606 phases=2 Bus1=44592705.2.3 Bus2=44633606.2.3 LineCode=2_AL_2PH_12KV_2 Length=0.002864 units=km
New Line.4178045E$ND169008762 phases=3 Bus1=44601226.1.2.3 Bus2=169008762.1.2.3 LineCode=350_CLP_3PH_12KV_3 Length=0.235428 units=km
New Line.186097701$P5383714-1 phases=1 Bus1=186097703.1 Bus2=44592363.1 LineCode=2_CLP_1PH_12KV_1 Length=0.134019 units=km
New Line.B5058799-1$ND44633606 phases=1 Bus1=44633606.3 Bus2=44592865.3 LineCode=2_AL_1PH_12KV_1 Length=0.059203 units=km
New Line.B5058798-1$ND44633606 phases=1 Bus1=44633606.2 Bus2=44593153.2 LineCode=2_CLP_1PH_12KV_1 Length=0.112055 units=km
New Line.ND169008781$ND169008762 phases=3 Bus1=169008762.1.2.3 Bus2=169008781.1.2.3 LineCode=350_CLP_3PH_12KV_3 Length=0.009721 units=km
New Line.P5057311-1$P5057310-1 phases=1 Bus1=72513324.2 Bus2=44597978.2 LineCode=2_CLP_1PH_12KV_1 Length=0.183244 units=km
New Line.PME7222-1$ND169008781 phases=3 Bus1=169008781.1.2.3 Bus2=169764853.1.2.3 LineCode=350_CLP_3PH_12KV_3 Length=0.369212 units=km
New Line.169822110$FD35457 phases=1 Bus1=44607244.2 Bus2=169822112.2 LineCode=2_CLP_1PH_12KV_1 Length=0.041829 units=km
New Line.B5196082-2$B5196083-1 phases=1 Bus1=44608163.1 Bus2=44580087.1 LineCode=2_CLP_1PH_12KV_1 Length=0.095409 units=km
New Line.P5383719-1$P5383720-2 phases=1 Bus1=44592003.3 Bus2=44591940.3 LineCode=2_CLP_1PH_12KV_1 Length=0.124586 units=km
New Line.ND169008781$S5398254 phases=3 Bus1=169008781.1.2.3 Bus2=44601242.1.2.3 LineCode=350_CLP_3PH_12KV_3 Length=0.00753 units=km
New Line.P5383714-2$211982177 phases=1 Bus1=44592372.1 Bus2=211982179.1 LineCode=2_CLP_1PH_12KV_1 Length=0.057695 units=km
New Line.B5058797-2$B5058799-2 phases=1 Bus1=44592874.3 Bus2=44592946.3 LineCode=2_AL_1PH_12KV_1 Length=0.128296 units=km
New Line.B5058798-2$B5058793-1 phases=1 Bus1=44593162.2 Bus2=44597519.2 LineCode=2_CLP_1PH_12KV_1 Length=0.17574 units=km
New Line.PME7186-2$4788787E phases=3 Bus1=185720866.1.2.3 Bus2=185720720.1.2.3 LineCode=1000_JCN_3PH_12KV_3 Length=0.246739 units=km
New Line.69418774$P5057311-2 phases=1 Bus1=44597987.2 Bus2=69418776.2 LineCode=2_CLP_1PH_12KV_1 Length=0.204392 units=km
New Line.P5057318-1$169822110 phases=1 Bus1=169822113.2 Bus2=72512851.2 LineCode=2_CLP_1PH_12KV_1 Length=0.002624 units=km
New Line.PME7222-4$ND202260314 phases=3 Bus1=169764835.1.2.3 Bus2=202260314.1.2.3 LineCode=350_JCN_3PH_12KV_3 Length=0.019222 units=km
New Line.P5383715-1$211982177 phases=1 Bus1=211982180.1 Bus2=44592435.1 LineCode=2_CLP_1PH_12KV_1 Length=0.103256 units=km
New Line.PME7222-2$P5398255 phases=3 Bus1=169764844.1.2.3 Bus2=169764988.1.2.3 LineCode=1/0_CLP_3PH_12KV_3 Length=0.009168 units=km
New Line.ND202260314$ND192126626 phases=3 Bus1=202260314.1.2.3 Bus2=192126626.1.2.3 LineCode=350_JCN_3PH_12KV_3 Length=0.726203 units=km
New Line.B5058796-2$B5058797-1 phases=1 Bus1=44592937.3 Bus2=44593090.3 LineCode=2_AL_1PH_12KV_1 Length=0.158603 units=km
New Line.B5058793-2$B5058791-2 phases=1 Bus1=44597528.2 Bus2=44597600.2 LineCode=2_CLP_1PH_12KV_1 Length=0.171599 units=km
New Line.PME7222-3$PME4722-2 phases=3 Bus1=169764826.1.2.3 Bus2=44601305.1.2.3 LineCode=350_CLP_3PH_12KV_3 Length=0.403432 units=km
New Line.P5057312-2$69418774 phases=1 Bus1=69418777.2 Bus2=72513421.2 LineCode=2_CLP_1PH_12KV_1 Length=0.001811 units=km
New Line.P5604153-1$P5398255 phases=3 Bus1=169764988.1.2.3 Bus2=109451636.1.2.3 LineCode=2_CLP_3PH_12KV_3 Length=0.172901 units=km
New Line.P5057318-2$169822137 phases=1 Bus1=72512860.2 Bus2=169822140.2 LineCode=2_CLP_1PH_12KV_1 Length=0.003691 units=km
New Line.J015-1P$ND192126626 phases=3 Bus1=192126626.1.2.3 Bus2=192126475.1.2.3 LineCode=350_JCN_3PH_12KV_3 Length=0.015511 units=km
New Line.ND192126626$GS7588-1 phases=3 Bus1=192126626.1.2.3 Bus2=230343094.1.2.3 LineCode=350_JCN_3PH_12KV_3 Length=0.259428 units=km
New Line.PME7186-1$PME6289-4 phases=3 Bus1=185720729.1.2.3 Bus2=103515599.1.2.3 LineCode=350_JCN_3PH_12KV_3 Length=0.260843 units=km
New Line.PME7186-4$ND103515816 phases=3 Bus1=185720711.1.2.3 Bus2=103515816.1.2.3 LineCode=350_JCN_3PH_12KV_3 Length=0.233733 units=km
New Line.211982152$P5383715-2 phases=1 Bus1=44592444.1 Bus2=211982155.1 LineCode=2_CLP_1PH_12KV_1 Length=0.159794 units=km
New Line.ND103515816$ND103516294 phases=3 Bus1=103515816.1.2.3 Bus2=103516294.1.2.3 LineCode=350_CLP_3PH_12KV_3 Length=0.092421 units=km
New Line.169822137$169822327 phases=1 Bus1=169822139.2 Bus2=169822329.2 LineCode=2_CLP_1PH_12KV_1 Length=0.164854 units=km
New Line.ND103515816$186106525 phases=3 Bus1=103515816.1.2.3 Bus2=186106527.1.2.3 LineCode=2_CLP_3PH_12KV_3 Length=0.166446 units=km
New Line.PME4722-3$199830239 phases=2 Bus1=44601287.1.2 Bus2=199830242.1.2 LineCode=1/0_JCN_2PH_12KV_2 Length=0.002144 units=km
New Line.B5058796-1$B5058795-2 phases=1 Bus1=44593081.3 Bus2=44593018.3 LineCode=2_AL_1PH_12KV_1 Length=0.116 units=km
New Line.B5058791-1$B5058790-2 phases=1 Bus1=44597591.2 Bus2=44597672.2 LineCode=2_CLP_1PH_12KV_1 Length=0.160859 units=km
New Line.69418794$P5057312-1 phases=1 Bus1=72513412.2 Bus2=69418797.2 LineCode=2_CLP_1PH_12KV_1 Length=0.002105 units=km
New Line.ND103516294$BS6681-1 phases=1 Bus1=103516294.3 Bus2=109832008.3 LineCode=2_CLP_1PH_12KV_1 Length=0.065325 units=km
New Line.PME4722-4$199830212 phases=2 Bus1=44601296.1.3 Bus2=199830215.1.3 LineCode=2_CLP_2PH_12KV_2 Length=0.002799 units=km
New Line.P5383716-1$211982152 phases=1 Bus1=211982154.1 Bus2=44592507.1 LineCode=2_CLP_1PH_12KV_1 Length=0.059817 units=km
New Line.GS6113-2$ND103516294 phases=3 Bus1=103516294.1.2.3 Bus2=97198805.1.2.3 LineCode=350_CLP_3PH_12KV_3 Length=0.31775 units=km
New Line.186106525$P5559397-1 phases=3 Bus1=186106528.1.2.3 Bus2=105846433.1.2.3 LineCode=2_CLP_3PH_12KV_3 Length=0.00449 units=km
New Line.J015-2P$108830978 phases=3 Bus1=192126499.1.2.3 Bus2=108830980.1.2.3 LineCode=2_CLP_3PH_12KV_3 Length=0.086256 units=km
New Line.ND110362223$PME6289-1 phases=3 Bus1=103515617.1.2.3 Bus2=110362223.1.2.3 LineCode=350_CLP_3PH_12KV_3 Length=0.138441 units=km
New Line.199830239$188669922 phases=2 Bus1=199830241.1.2 Bus2=188669924.1.2 LineCode=1/0_JCN_2PH_12KV_2 Length=0.223687 units=km
New Line.235736906$GS7588-2 phases=3 Bus1=230343086.1.2.3 Bus2=235736908.1.2.3 LineCode=1/0_JCN_3PH_12KV_3 Length=0.327301 units=km
New Line.P5057317-2$169822327 phases=1 Bus1=169822330.2 Bus2=44598569.2 LineCode=2_CLP_1PH_12KV_1 Length=0.002037 units=km
New Line.69418794$69418757 phases=1 Bus1=69418796.2 Bus2=69418759.2 LineCode=2_CLP_1PH_12KV_1 Length=0.283217 units=km