! OpenDSS script generated from multiconductor network
Clear

New Circuit.mc_network basekv=12.0 pu=1.000000 angle=0.00 frequency=60.0 phases=3 Mvasc3=143993 Mvasc1=47997.6
~ bus1=-8888882173851.1.2.3

! Line codes
New LineCode.2_CLP_3PH_12KV_3 nphases=3 units=km Rmatrix=[ 0.001683 | 0 0.001683 | 0 0 0.001683 ] Xmatrix=[ 0.000355 | 0 0.000355 | 0 0 0.000355 ] Cmatrix=[ 0 | 0 0 | 0 0 0 ]
New LineCode.1/0_JCN_3PH_12KV_3 nphases=3 units=km Rmatrix=[ 0.001297 | 0 0.001297 | 0 0 0.001297 ] Xmatrix=[ 0.000396 | 0 0.000396 | 0 0 0.000396 ] Cmatrix=[ 0 | 0 0 | 0 0 0 ]
New LineCode.350_AL_3PH_12KV_3 nphases=3 units=km Rmatrix=[ 0.004947 | 0 0.004947 | 0 0 0.004947 ] Xmatrix=[ 0.003759 | 0 0.003759 | 0 0 0.003759 ] Cmatrix=[ 0 | 0 0 | 0 0 0 ]
New LineCode.4_CU_3PH_12KV_3 nphases=3 units=km Rmatrix=[ 0.001814 | 0 0.001814 | 0 0 0.001814 ] Xmatrix=[ 0.000989 | 0 0.000989 | 0 0 0.000989 ] Cmatrix=[ 0 | 0 0 | 0 0 0 ]
New LineCode.1/0_CLP_3PH_12KV_3 nphases=3 units=km Rmatrix=[ 0.009802 | 0 0.009802 | 0 0 0.009802 ] Xmatrix=[ 0.002996 | 0 0.002996 | 0 0 0.002996 ] Cmatrix=[ 0 | 0 0 | 0 0 0 ]
New LineCode.2_CLP_2PH_12KV_2 nphases=2 units=km Rmatrix=[ 0.092657 | 0 0.092657 ] Xmatrix=[ 0.01953 | 0 0.01953 ] Cmatrix=[ 0 | 0 0 ]
New LineCode.2_JCN_3PH_12KV_3 nphases=3 units=km Rmatrix=[ 0.028297 | 0 0.028297 | 0 0 0.028297 ] Xmatrix=[ 0.005964 | 0 0.005964 | 0 0 0.005964 ] Cmatrix=[ 0 | 0 0 | 0 0 0 ]
New LineCode.1/0_AL_3PH_12KV_3 nphases=3 units=km Rmatrix=[ 0.00106 | 0 0.00106 | 0 0 0.00106 ] Xmatrix=[ 0.000324 | 0 0.000324 | 0 0 0.000324 ] Cmatrix=[ 0 | 0 0 | 0 0 0 ]
New LineCode.2_CLP_1PH_12KV_1 nphases=1 units=km Rmatrix=[ 0.133374 ] Xmatrix=[ 0.028113 ] Cmatrix=[ 0 ]
New LineCode.336_ACSR_3PH_12KV_3 nphases=3 units=km Rmatrix=[ 0.002549 | 0 0.002549 | 0 0 0.002549 ] Xmatrix=[ 0.005707 | 0 0.005707 | 0 0 0.005707 ] Cmatrix=[ 0 | 0 0 | 0 0 0 ]
New LineCode.1/0_ACSR_3PH_12KV_3 nphases=3 units=km Rmatrix=[ 0.002926 | 0 0.002926 | 0 0 0.002926 ] Xmatrix=[ 0.00233 | 0 0.00233 | 0 0 0.00233 ] Cmatrix=[ 0 | 0 0 | 0 0 0 ]
New LineCode.336_ACSR_3PH_336_ACSR_N_12KV_4 nphases=4 units=km Rmatrix=[ 0.022307 | 0 0.022307 | 0 0 0.022307 | 0 0 0 0.022307 ] Xmatrix=[ 0.044486 | 0 0.044486 | 0 0 0.044486 | 0 0 0 0.044486 ] Cmatrix=[ 0 | 0 0 | 0 0 0 | 0 0 0 0 ]
New LineCode.1/0_ACSR_3PH_1/0_ACSR_N_12KV_4 nphases=4 units=km Rmatrix=[ 0.220089 | 0 0.220089 | 0 0 0.220089 | 0 0 0 0.220089 ] Xmatrix=[ 0.159056 | 0 0.159056 | 0 0 0.159056 | 0 0 0 0.159056 ] Cmatrix=[ 0 | 0 0 | 0 0 0 | 0 0 0 0 ]
New LineCode.4/0_ACSR_3PH_12KV_3 nphases=3 units=km Rmatrix=[ 0.029517 | 0 0.029517 | 0 0 0.029517 ] Xmatrix=[ 0.041715 | 0 0.041715 | 0 0 0.041715 ] Cmatrix=[ 0 | 0 0 | 0 0 0 ]
New LineCode.1/0_ACSR_2PH_1/0_ACSR_N_12KV_3_N nphases=3 units=km Rmatrix=[ 0.017228 | 0 0.017228 | 0 0 0.017228 ] Xmatrix=[ 0.01245 | 0 0.01245 | 0 0 0.01245 ] Cmatrix=[ 0 | 0 0 | 0 0 0 ]
New LineCode.4_ACSR_3PH_12KV_3 nphases=3 units=km Rmatrix=[ 0.004834 | 0 0.004834 | 0 0 0.004834 ] Xmatrix=[ 0.001774 | 0 0.001774 | 0 0 0.001774 ] Cmatrix=[ 0 | 0 0 | 0 0 0 ]
New LineCode.2/0_ACSR_2PH_12KV_2 nphases=2 units=km Rmatrix=[ 0.001944 | 0 0.001944 ] Xmatrix=[ 0.001882 | 0 0.001882 ] Cmatrix=[ 0 | 0 0 ]
New LineCode.2_ACSR_3PH_12KV_3 nphases=3 units=km Rmatrix=[ 0.004741 | 0 0.004741 | 0 0 0.004741 ] Xmatrix=[ 0.002549 | 0 0.002549 | 0 0 0.002549 ] Cmatrix=[ 0 | 0 0 | 0 0 0 ]
New LineCode.4_ACSR_2PH_12KV_2 nphases=2 units=km Rmatrix=[ 0.066062 | 0 0.066062 ] Xmatrix=[ 0.024241 | 0 0.024241 ] Cmatrix=[ 0 | 0 0 ]
New LineCode.4_ACSR_2PH_4_ACSR_N_12KV_3_N nphases=3 units=km Rmatrix=[ 0.155027 | 0 0.155027 | 0 0 0.155027 ] Xmatrix=[ 0.052145 | 0 0.052145 | 0 0 0.052145 ] Cmatrix=[ 0 | 0 0 | 0 0 0 ]
New LineCode.2_ACSR_2PH_2_ACSR_N_12KV_3_N nphases=3 units=km Rmatrix=[ 0.002606 | 0 0.002606 | 0 0 0.002606 ] Xmatrix=[ 0.001262 | 0 0.001262 | 0 0 0.001262 ] Cmatrix=[ 0 | 0 0 | 0 0 0 ]
New LineCode.336_ACSR_2PH_336_ACSR_N_12KV_3_N nphases=3 units=km Rmatrix=[ 0.006963 | 0 0.006963 | 0 0 0.006963 ] Xmatrix=[ 0.013886 | 0 0.013886 | 0 0 0.013886 ] Cmatrix=[ 0 | 0 0 | 0 0 0 ]
New LineCode.2_ACSR_2PH_12KV_2 nphases=2 units=km Rmatrix=[ 0.068211 | 0 0.068211 ] Xmatrix=[ 0.036671 | 0 0.036671 ] Cmatrix=[ 0 | 0 0 ]
New LineCode.1/0_ACSR_2PH_12KV_2 nphases=2 units=km Rmatrix=[ 0.032199 | 0 0.032199 ] Xmatrix=[ 0.025636 | 0 0.025636 ] Cmatrix=[ 0 | 0 0 ]
New LineCode.1000_JCN_3PH_12KV_3 nphases=3 units=km Rmatrix=[ 0.014334 | 0 0.014334 | 0 0 0.014334 ] Xmatrix=[ 0.021697 | 0 0.021697 | 0 0 0.021697 ] Cmatrix=[ 0 | 0 0 | 0 0 0 ]

! Lines
New Line.4085155E$197297442 phases=3 Bus1=13267621.1.2.3 Bus2=197297444.1.2.3 LineCode=2_CLP_3PH_12KV_3 Length=0.015903 units=km
New Line.ND39141535$205794551 phases=3 Bus1=39141535.1.2.3 Bus2=205794553.1.2.3 LineCode=2_CLP_3PH_12KV_3 Length=0.09689 units=km
New Line.PH157$PME1433-1 phases=3 Bus1=239864424.1.2.3 Bus2=239864528.1.2.3 LineCode=1/0_JCN_3PH_12KV_3 Length=0.086902 units=km
New Line.ND39141535$P5199306-A phases=3 Bus1=39141535.1.2.3 Bus2=39128554.1.2.3 LineCode=350_AL_3PH_12KV_3 Length=0.031468 units=km
New Line.ND111133423$4019447EPH phases=3 Bus1=111133423.1.2.3 Bus2=111133287.1.2.3 LineCode=4_CU_3PH_12KV_3 Length=0.032001 units=km
New Line.205794514$P5199305-B phases=3 Bus1=39128477.1.2.3 Bus2=205794517.1.2.3 LineCode=1/0_CLP_3PH_12KV_3 Length=0.001623 units=km
New Line.197297442$P5442899-1 phases=3 Bus1=197297445.1.2.3 Bus2=13267637.1.2.3 LineCode=2_CLP_3PH_12KV_3 Length=0.002498 units=km
New Line.J209A-2P$P5199213-A phases=3 Bus1=39129942.1.2.3 Bus2=153614734.1.2.3 LineCode=1/0_CLP_3PH_12KV_3 Length=0.397343 units=km
New Line.205794551$P5424847-1 phases=3 Bus1=205794554.1.2.3 Bus2=39140567.1.2.3 LineCode=2_CLP_3PH_12KV_3 Length=0.001511 units=km
New Line.4019447EPH$215468978 phases=3 Bus1=111133288.1.2.3 Bus2=215468980.1.2.3 LineCode=2_CLP_3PH_12KV_3 Length=0.02891 units=km
New Line.P5344558-A$205794514 phases=3 Bus1=205794516.1.2.3 Bus2=39128391.1.2.3 LineCode=1/0_CLP_3PH_12KV_3 Length=0.113979 units=km
New Line.J209A-1P$PMS1535-1 phases=2 Bus1=39129926.2.3 Bus2=39129112.2.3 LineCode=2_CLP_2PH_12KV_2 Length=0.005665 units=km
New Line.239864603$PME1433-2 phases=3 Bus1=239864519.1.2.3 Bus2=239864605.1.2.3 LineCode=1/0_JCN_3PH_12KV_3 Length=0.189331 units=km
New Line.215468978$P5574518-1 phases=3 Bus1=215468981.1.2.3 Bus2=111133374.1.2.3 LineCode=2_CLP_3PH_12KV_3 Length=0.001868 units=km
New Line.4361265EP1$141368064 phases=3 Bus1=141367966.1.2.3 Bus2=141368066.1.2.3 LineCode=2_JCN_3PH_12KV_3 Length=0.025308 units=km
New Line.P5316068-1$P5199213-B phases=3 Bus1=153614752.1.2.3 Bus2=39129064.1.2.3 LineCode=1/0_CLP_3PH_12KV_3 Length=0.123902 units=km
New Line.PMS1535-1$J209B-1P phases=2 Bus1=39129113.2.3 Bus2=39130024.2.3 LineCode=2_CLP_2PH_12KV_2 Length=0.005665 units=km
New Line.1962956E$P5386379-1 phases=3 Bus1=39127054.1.2.3 Bus2=39127070.1.2.3 LineCode=350_AL_3PH_12KV_3 Length=0.038286 units=km
New Line.GS2040-3$4274942E phases=3 Bus1=13248561.1.2.3 Bus2=13248447.1.2.3 LineCode=350_AL_3PH_12KV_3 Length=0.066555 units=km
New Line.239864603$ND239864636 phases=3 Bus1=239864606.1.2.3 Bus2=239864618.1.2.3 LineCode=1/0_JCN_3PH_12KV_3 Length=0.005606 units=km
New Line.P5344558-B$P5429849-1 phases=3 Bus1=39128400.1.2.3 Bus2=39128625.1.2.3 LineCode=1/0_CLP_3PH_12KV_3 Length=0.032032 units=km
New Line.P5609548-1$141368064 phases=3 Bus1=141368067.1.2.3 Bus2=141368015.1.2.3 LineCode=2_JCN_3PH_12KV_3 Length=0.001033 units=km
New Line.4664009EPH$P5181357-1 phases=3 Bus1=39127115.1.2.3 Bus2=39127131.1.2.3 LineCode=350_AL_3PH_12KV_3 Length=0.009686 units=km
New Line.2185023E$P5332066-A phases=3 Bus1=30638185.1.2.3 Bus2=153614235.1.2.3 LineCode=350_AL_3PH_12KV_3 Length=0.007482 units=km
New Line.2185021E$P5180330-A phases=3 Bus1=30638284.1.2.3 Bus2=153614135.1.2.3 LineCode=350_AL_3PH_12KV_3 Length=0.022766 units=km
New Line.4301963E$ND39140230 phases=3 Bus1=39140195.1.2.3 Bus2=39140208.1.2.3 LineCode=1/0_AL_3PH_12KV_3 Length=0.005579 units=km
New Line.CTC1211263$204265657 phases=3 Bus1=30639422.1.2.3 Bus2=204265659.1.2.3 LineCode=350_AL_3PH_12KV_3 Length=0.024602 units=km
New Line.527870S$181533211 phases=3 Bus1=39140322.1.2.3 Bus2=181533213.1.2.3 LineCode=1/0_AL_3PH_12KV_3 Length=0.003981 units=km
New Line.B5199505-1$J209B-2P phases=2 Bus1=39130040.2.3 Bus2=39129594.2.3 LineCode=2_CLP_2PH_12KV_2 Length=0.062591 units=km
New Line.J209B-3P$J210A-4P phases=2 Bus1=39130032.2.3 Bus2=39130135.2.3 LineCode=2_CLP_2PH_12KV_2 Length=0.133546 units=km
New Line.ND15759864$FD73084 phases=1 Bus1=15724234.2 Bus2=15759864.2 LineCode=2_CLP_1PH_12KV_1 Length=0.007998 units=km
New Line.FD73085$ND15760190 phases=1 Bus1=15723905.1 Bus2=15760190.1 LineCode=2_CLP_1PH_12KV_1 Length=0.103559 units=km
New Line.ND15759864$ND111454322 phases=1 Bus1=15759864.2 Bus2=111454322.2 LineCode=2_CLP_1PH_12KV_1 Length=0.058535 units=km
New Line.P5344823-1$ND15760190 phases=1 Bus1=15760190.1 Bus2=15724065.1 LineCode=2_CLP_1PH_12KV_1 Length=0.116596 units=km
New Line.2263193E$P5186725-A phases=3 Bus1=30638383.1.2.3 Bus2=153614335.1.2.3 LineCode=350_AL_3PH_12KV_3 Length=0.042087 units=km
New Line.204265657$P5413975-1 phases=3 Bus1=204265660.1.2.3 Bus2=30638485.1.2.3 LineCode=350_AL_3PH_12KV_3 Length=0.001925 units=km
New Line.263636S$P5050102-1 phases=3 Bus1=39140238.1.2.3 Bus2=39127684.1.2.3 LineCode=1/0_CLP_3PH_12KV_3 Length=0.027801 units=km
New Line.ND111133423$ND13307309 phases=3 Bus1=13307309.1.2.3 Bus2=111133423.1.2.3 LineCode=336_ACSR_3PH_12KV_3 Length=0.077211 units=km
New Line.1756634E$ND13307309 phases=3 Bus1=13307309.1.2.3 Bus2=13274743.1.2.3 LineCode=1/0_ACSR_3PH_12KV_3 Length=0.019527 units=km
New Line.366995E$ND15760207 phases=3 Bus1=15760207.1.2.3 Bus2=15759012.1.2.3 LineCode=336_ACSR_3PH_12KV_3 Length=0.002294 units=km
New Line.ND15762277$ND15760207 phases=4 Bus1=15760207.0.1.2.3 Bus2=15762277.0.1.2.3 LineCode=336_ACSR_3PH_336_ACSR_N_12KV_4 Length=0.05767 units=km
New Line.1756633E$4346577E phases=3 Bus1=13274730.1.2.3 Bus2=13241514.1.2.3 LineCode=1/0_ACSR_3PH_12KV_3 Length=0.02831 units=km
New Line.ND13308214$ND111133423 phases=3 Bus1=111133423.1.2.3 Bus2=13308214.1.2.3 LineCode=336_ACSR_3PH_12KV_3 Length=0.032001 units=km
New Line.366994E$ND15762277 phases=4 Bus1=15762277.0.1.2.3 Bus2=15754352.0.1.2.3 LineCode=1/0_ACSR_3PH_1/0_ACSR_N_12KV_4 Length=0.081727 units=km
New Line.4990241E$ND15762277 phases=4 Bus1=15762277.0.1.2.3 Bus2=258221761.0.1.2.3 LineCode=336_ACSR_3PH_336_ACSR_N_12KV_4 Length=0.018806 units=km
New Line.1756634E$4330678E phases=3 Bus1=13274744.1.2.3 Bus2=13249092.1.2.3 LineCode=1/0_ACSR_3PH_12KV_3 Length=0.0332 units=km
New Line.1756637E$ND13308214 phases=3 Bus1=13308214.1.2.3 Bus2=13274717.1.2.3 LineCode=1/0_ACSR_3PH_12KV_3 Length=0.044048 units=km
New Line.ND141367993$ND13308214 phases=3 Bus1=13308214.1.2.3 Bus2=141367993.1.2.3 LineCode=336_ACSR_3PH_12KV_3 Length=0.037908 units=km
New Line.67382S$67383S phases=4 Bus1=258221761.0.1.2.3 Bus2=15752934.0.1.2.3 LineCode=336_ACSR_3PH_336_ACSR_N_12KV_4 Length=0.030714 units=km
New Line.366995E$366987S phases=3 Bus1=15759013.1.2.3 Bus2=207199469.1.2.3 LineCode=336_ACSR_3PH_12KV_3 Length=0.096044 units=km
New Line.ND13276064$ND141367993 phases=3 Bus1=141367993.1.2.3 Bus2=13276064.1.2.3 LineCode=336_ACSR_3PH_12KV_3 Length=0.039884 units=km
New Line.ND140842505$366987S phases=3 Bus1=207199469.1.2.3 Bus2=140842505.1.2.3 LineCode=336_ACSR_3PH_12KV_3 Length=0.061142 units=km
New Line.ND141367993$4361265EP1 phases=3 Bus1=141367993.1.2.3 Bus2=141367965.1.2.3 LineCode=336_ACSR_3PH_12KV_3 Length=0.077792 units=km
New Line.ND15760339$67382S phases=4 Bus1=15752934.0.1.2.3 Bus2=15760339.0.1.2.3 LineCode=336_ACSR_3PH_336_ACSR_N_12KV_4 Length=0.005641 units=km
New Line.366994E$ND15761379 phases=4 Bus1=15754353.0.1.2.3 Bus2=15761379.0.1.2.3 LineCode=1/0_ACSR_3PH_1/0_ACSR_N_12KV_4 Length=0.343988 units=km
New Line.1756637E$1756630E phases=3 Bus1=13274718.1.2.3 Bus2=13241489.1.2.3 LineCode=1/0_ACSR_3PH_12KV_3 Length=0.045954 units=km
New Line.4274942E$ND13276064 phases=3 Bus1=13276064.1.2.3 Bus2=13248560.1.2.3 LineCode=336_ACSR_3PH_12KV_3 Length=0.080832 units=km
New Line.1756639E$ND13276064 phases=3 Bus1=13276064.1.2.3 Bus2=13274704.1.2.3 LineCode=1/0_ACSR_3PH_12KV_3 Length=0.045115 units=km
New Line.ND15761379$2263664E phases=4 Bus1=15761379.0.1.2.3 Bus2=15724150.0.1.2.3 LineCode=1/0_ACSR_3PH_1/0_ACSR_N_12KV_4 Length=0.042533 units=km
New Line.ND140842505$465467S phases=3 Bus1=140842505.1.2.3 Bus2=15728673.1.2.3 LineCode=4/0_ACSR_3PH_12KV_3 Length=0.085252 units=km
New Line.1552441E$ND15760339 phases=3 Bus1=15760339.0.1.2 Bus2=15754377.0.1.2 LineCode=1/0_ACSR_2PH_1/0_ACSR_N_12KV_3_N Length=0.014232 units=km
New Line.PS0137$ND15760339 phases=4 Bus1=15760339.0.1.2.3 Bus2=15754398.0.1.2.3 LineCode=336_ACSR_3PH_336_ACSR_N_12KV_4 Length=0.150837 units=km
New Line.ND15762353$ND140842505 phases=3 Bus1=140842505.1.2.3 Bus2=15762353.1.2.3 LineCode=336_ACSR_3PH_12KV_3 Length=0.078625 units=km
New Line.ND174505174$1553348E_T phases=4 Bus1=39130482.0.1.2.3 Bus2=174505174.0.1.2.3 LineCode=336_ACSR_3PH_336_ACSR_N_12KV_4 Length=0.089402 units=km
New Line.PS0214$ND174505174 phases=4 Bus1=174505174.0.1.2.3 Bus2=140573653.0.1.2.3 LineCode=336_ACSR_3PH_336_ACSR_N_12KV_4 Length=0.083446 units=km
New Line.ND174505174$1553346ET1T1 phases=4 Bus1=174505174.0.1.2.3 Bus2=140573694.0.1.2.3 LineCode=336_ACSR_3PH_336_ACSR_N_12KV_4 Length=0.027364 units=km
New Line.PS0214$4766586E phases=4 Bus1=140573652.0.1.2.3 Bus2=140573561.0.1.2.3 LineCode=336_ACSR_3PH_336_ACSR_N_12KV_4 Length=0.075426 units=km
New Line.4766586E$ND144747111 phases=4 Bus1=140573560.0.1.2.3 Bus2=144747111.0.1.2.3 LineCode=336_ACSR_3PH_336_ACSR_N_12KV_4 Length=0.054555 units=km
New Line.ND144747111$PS0536 phases=4 Bus1=144747111.0.1.2.3 Bus2=39140671.0.1.2.3 LineCode=336_ACSR_3PH_336_ACSR_N_12KV_4 Length=0.088714 units=km
New Line.ND144747111$ND39141321 phases=4 Bus1=144747111.0.1.2.3 Bus2=39141321.0.1.2.3 LineCode=336_ACSR_3PH_336_ACSR_N_12KV_4 Length=0.421239 units=km
New Line.1962957E$ND39141321 phases=3 Bus1=39141321.1.2.3 Bus2=39140737.1.2.3 LineCode=4_ACSR_3PH_12KV_3 Length=0.029274 units=km
New Line.1962957ET1$ND39141321 phases=2 Bus1=39141321.2.3 Bus2=39141065.2.3 LineCode=2/0_ACSR_2PH_12KV_2 Length=0.029274 units=km
New Line.ND39141321$ND39141322 phases=4 Bus1=39141321.0.1.2.3 Bus2=39141322.0.1.2.3 LineCode=336_ACSR_3PH_336_ACSR_N_12KV_4 Length=0.064268 units=km
New Line.ND39141322$267321S phases=4 Bus1=39141322.0.1.2.3 Bus2=140418238.0.1.2.3 LineCode=336_ACSR_3PH_336_ACSR_N_12KV_4 Length=0.181976 units=km
New Line.ND39141322$PS1389 phases=3 Bus1=39141322.1.2.3 Bus2=236096215.1.2.3 LineCode=336_ACSR_3PH_12KV_3 Length=0.006017 units=km
New Line.1962956ET1$ND39141322 phases=3 Bus1=39141322.1.2.3 Bus2=39140728.1.2.3 LineCode=2_ACSR_3PH_12KV_3 Length=0.004769 units=km
New Line.1962957E$4715160E phases=3 Bus1=39140738.1.2.3 Bus2=39127474.1.2.3 LineCode=4_ACSR_3PH_12KV_3 Length=0.035186 units=km
New Line.267321S$4750289E phases=4 Bus1=140418238.0.1.2.3 Bus2=39127501.0.1.2.3 LineCode=336_ACSR_3PH_336_ACSR_N_12KV_4 Length=0.0452 units=km
New Line.1962957ET1$427978S phases=2 Bus1=39141066.2.3 Bus2=39130621.2.3 LineCode=2/0_ACSR_2PH_12KV_2 Length=0.195385 units=km
New Line.PS1389$1962956E phases=3 Bus1=236096216.1.2.3 Bus2=39127053.1.2.3 LineCode=336_ACSR_3PH_12KV_3 Length=0.003103 units=km
New Line.4750289E$2156821E phases=4 Bus1=39127501.0.1.2.3 Bus2=39127422.0.1.2.3 LineCode=336_ACSR_3PH_336_ACSR_N_12KV_4 Length=0.159599 units=km
New Line.1962956ET1$4616556E phases=3 Bus1=39140727.1.2.3 Bus2=39127449.1.2.3 LineCode=2_ACSR_3PH_12KV_3 Length=0.02487 units=km
New Line.2156821E$1599506E phases=4 Bus1=39127422.0.1.2.3 Bus2=39127393.0.1.2.3 LineCode=336_ACSR_3PH_336_ACSR_N_12KV_4 Length=0.026262 units=km
New Line.ND15761379$4355425E phases=2 Bus1=15761379.2.3 Bus2=70063419.2.3 LineCode=4_ACSR_2PH_12KV_2 Length=0.166743 units=km
New Line.465467S$226492S phases=3 Bus1=15728673.1.2.3 Bus2=15728702.1.2.3 LineCode=4/0_ACSR_3PH_12KV_3 Length=0.079811 units=km
New Line.2263664E$ND15759839 phases=4 Bus1=15724150.0.1.2.3 Bus2=15759839.0.1.2.3 LineCode=1/0_ACSR_3PH_1/0_ACSR_N_12KV_4 Length=0.082702 units=km
New Line.ND15762353$ND15762979 phases=3 Bus1=15762353.1.2.3 Bus2=15762979.1.2.3 LineCode=2_ACSR_3PH_12KV_3 Length=0.091528 units=km
New Line.ND15762353$5016701E phases=3 Bus1=15762353.1.2.3 Bus2=299669309.1.2.3 LineCode=2_ACSR_3PH_12KV_3 Length=0.051253 units=km
New Line.1599506E$34131CIT phases=4 Bus1=39127393.0.1.2.3 Bus2=39127364.0.1.2.3 LineCode=336_ACSR_3PH_336_ACSR_N_12KV_4 Length=0.110905 units=km
New Line.34131CIT$2185029E phases=4 Bus1=39127364.0.1.2.3 Bus2=39140298.0.1.2.3 LineCode=336_ACSR_3PH_336_ACSR_N_12KV_4 Length=0.038525 units=km
New Line.2185029E$ND39142427 phases=4 Bus1=39140298.0.1.2.3 Bus2=39142427.0.1.2.3 LineCode=336_ACSR_3PH_336_ACSR_N_12KV_4 Length=0.110367 units=km
New Line.ND39142427$4664009EPH phases=3 Bus1=39142427.1.2.3 Bus2=39127114.1.2.3 LineCode=336_ACSR_3PH_12KV_3 Length=0.003981 units=km
New Line.ND39142427$4750288E phases=4 Bus1=39142427.0.1.2.3 Bus2=39127335.0.1.2.3 LineCode=336_ACSR_3PH_336_ACSR_N_12KV_4 Length=0.049706 units=km
New Line.4355425E$4355428E phases=2 Bus1=70063419.2.3 Bus2=70063462.2.3 LineCode=4_ACSR_2PH_12KV_2 Length=0.173161 units=km
New Line.1756639E$4631311E phases=3 Bus1=13274705.1.2.3 Bus2=13241464.1.2.3 LineCode=1/0_ACSR_3PH_12KV_3 Length=0.050118 units=km
New Line.1552441E$ND135087471 phases=3 Bus1=15754378.0.1.2 Bus2=135087471.0.1.2 LineCode=1/0_ACSR_2PH_1/0_ACSR_N_12KV_3_N Length=0.190324 units=km
New Line.ND15759839$1552705E phases=2 Bus1=15759839.1.2 Bus2=15722971.1.2 LineCode=4_ACSR_2PH_12KV_2 Length=0.072903 units=km
New Line.4355428E$2263659E phases=2 Bus1=70063462.2.3 Bus2=15724200.2.3 LineCode=4_ACSR_2PH_12KV_2 Length=0.253318 units=km
New Line.226492S$465142S phases=3 Bus1=15728702.1.2.3 Bus2=15728731.1.2.3 LineCode=4/0_ACSR_3PH_12KV_3 Length=0.087183 units=km
New Line.5016701E$366991S phases=3 Bus1=299669309.1.2.3 Bus2=15738032.1.2.3 LineCode=2_ACSR_3PH_12KV_3 Length=0.050738 units=km
New Line.ND15762979$465454S phases=3 Bus1=15762979.1.2.3 Bus2=15738082.1.2.3 LineCode=2_ACSR_3PH_12KV_3 Length=0.024366 units=km
New Line.ND15759839$ND15759840 phases=3 Bus1=15759839.0.1.3 Bus2=15759840.0.1.3 LineCode=4_ACSR_2PH_4_ACSR_N_12KV_3_N Length=0.101627 units=km
New Line.ND15762979$ND15772416 phases=3 Bus1=15762979.1.2.3 Bus2=15772416.1.2.3 LineCode=2_ACSR_3PH_12KV_3 Length=0.091683 units=km
New Line.ND15759840$2155728E phases=3 Bus1=15759840.0.1.3 Bus2=15723796.0.1.3 LineCode=2_ACSR_2PH_2_ACSR_N_12KV_3_N Length=0.115406 units=km
New Line.ND135087471$1552446E phases=3 Bus1=135087471.0.1.2 Bus2=15724225.0.1.2 LineCode=1/0_ACSR_2PH_1/0_ACSR_N_12KV_3_N Length=0.026926 units=km
New Line.366991S$28313CIT phases=2 Bus1=15738032.1.2 Bus2=15738057.1.2 LineCode=4_ACSR_2PH_12KV_2 Length=0.158222 units=km
New Line.465454S$465457S phases=3 Bus1=15738082.1.2.3 Bus2=15738107.1.2.3 LineCode=2_ACSR_3PH_12KV_3 Length=0.129406 units=km
New Line.ND15772416$226495S phases=2 Bus1=15772416.1.2 Bus2=15738182.1.2 LineCode=4_ACSR_2PH_12KV_2 Length=0.044893 units=km
New Line.ND15759840$BF73424 phases=2 Bus1=15759840.1.3 Bus2=15759548.1.3 LineCode=4_ACSR_2PH_12KV_2 Length=0.031732 units=km
New Line.465142S$ND15762831 phases=3 Bus1=15728731.1.2.3 Bus2=15762831.1.2.3 LineCode=4/0_ACSR_3PH_12KV_3 Length=0.02586 units=km
New Line.4750288E$ND39142222 phases=4 Bus1=39127335.0.1.2.3 Bus2=39142222.0.1.2.3 LineCode=336_ACSR_3PH_336_ACSR_N_12KV_4 Length=0.123535 units=km
New Line.ND39142222$2156824E phases=4 Bus1=39142222.0.1.2.3 Bus2=39127219.0.1.2.3 LineCode=336_ACSR_3PH_336_ACSR_N_12KV_4 Length=0.027014 units=km
New Line.ND39142222$4200105E phases=4 Bus1=39142222.0.1.2.3 Bus2=39129913.0.1.2.3 LineCode=336_ACSR_3PH_336_ACSR_N_12KV_4 Length=0.062287 units=km
New Line.ND39142222$63300S phases=3 Bus1=39142222.0.1.2 Bus2=39140507.0.1.2 LineCode=336_ACSR_2PH_336_ACSR_N_12KV_3_N Length=0.024068 units=km
New Line.2156824E$RCS0534 phases=4 Bus1=39127219.0.1.2.3 Bus2=30641724.0.1.2.3 LineCode=336_ACSR_3PH_336_ACSR_N_12KV_4 Length=0.032816 units=km
New Line.4200105E$ND39141409 phases=4 Bus1=39129913.0.1.2.3 Bus2=39141409.0.1.2.3 LineCode=336_ACSR_3PH_336_ACSR_N_12KV_4 Length=0.069274 units=km
New Line.ND39141409$4200107E phases=4 Bus1=39141409.0.1.2.3 Bus2=39127248.0.1.2.3 LineCode=336_ACSR_3PH_336_ACSR_N_12KV_4 Length=0.110094 units=km
New Line.1738634ET1$ND39141409 phases=3 Bus1=39141409.1.2.3 Bus2=39141076.1.2.3 LineCode=1/0_ACSR_3PH_12KV_3 Length=0.026925 units=km
New Line.ND30672704$PS0534 phases=4 Bus1=30641723.0.1.2.3 Bus2=30672704.0.1.2.3 LineCode=336_ACSR_3PH_336_ACSR_N_12KV_4 Length=0.044235 units=km
New Line.4200107E$4200110E phases=4 Bus1=39127248.0.1.2.3 Bus2=39127277.0.1.2.3 LineCode=336_ACSR_3PH_336_ACSR_N_12KV_4 Length=0.131471 units=km
New Line.ND30672704$2185023E phases=3 Bus1=30672704.1.2.3 Bus2=30638184.1.2.3 LineCode=336_ACSR_3PH_12KV_3 Length=0.099865 units=km
New Line.2185022E$ND30672704 phases=4 Bus1=30672704.0.1.2.3 Bus2=30641029.0.1.2.3 LineCode=336_ACSR_3PH_336_ACSR_N_12KV_4 Length=0.05563 units=km
New Line.PS0207$4200110E phases=4 Bus1=39127277.0.1.2.3 Bus2=39140801.0.1.2.3 LineCode=336_ACSR_3PH_336_ACSR_N_12KV_4 Length=0.163113 units=km
New Line.1738634ET1$ND39141467 phases=3 Bus1=39141075.1.2.3 Bus2=39141467.1.2.3 LineCode=1/0_ACSR_3PH_12KV_3 Length=0.186625 units=km
New Line.ND30672681$2185022E phases=4 Bus1=30641029.0.1.2.3 Bus2=30672681.0.1.2.3 LineCode=336_ACSR_3PH_336_ACSR_N_12KV_4 Length=0.046213 units=km
New Line.ND39141467$2185281E phases=3 Bus1=39141467.1.2.3 Bus2=39127192.1.2.3 LineCode=1/0_ACSR_3PH_12KV_3 Length=0.092717 units=km
New Line.ND39141467$ND39141881 phases=3 Bus1=39141467.1.2.3 Bus2=39141881.1.2.3 LineCode=2_ACSR_3PH_12KV_3 Length=0.080771 units=km
New Line.ND30672681$2185021E phases=3 Bus1=30672681.1.2.3 Bus2=30638283.1.2.3 LineCode=336_ACSR_3PH_12KV_3 Length=0.087977 units=km
New Line.4426171E$ND30672681 phases=4 Bus1=30672681.0.1.2.3 Bus2=30640633.0.1.2.3 LineCode=336_ACSR_3PH_336_ACSR_N_12KV_4 Length=0.041764 units=km
New Line.PS0207$4200112E phases=4 Bus1=39140800.0.1.2.3 Bus2=39127306.0.1.2.3 LineCode=336_ACSR_3PH_336_ACSR_N_12KV_4 Length=0.039628 units=km
New Line.ND39141881$1738638E phases=3 Bus1=39141881.1.2.3 Bus2=39129886.1.2.3 LineCode=2_ACSR_3PH_12KV_3 Length=0.056599 units=km
New Line.2185281E$4301963E phases=3 Bus1=39127192.1.2.3 Bus2=39140194.1.2.3 LineCode=1/0_ACSR_3PH_12KV_3 Length=0.042134 units=km
New Line.ND39141881$465018S phases=3 Bus1=39141881.1.2.3 Bus2=39140428.1.2.3 LineCode=4_ACSR_3PH_12KV_3 Length=0.045964 units=km
New Line.ND30673733$4426171E phases=4 Bus1=30640633.0.1.2.3 Bus2=30673733.0.1.2.3 LineCode=336_ACSR_3PH_336_ACSR_N_12KV_4 Length=0.119913 units=km
New Line.4200112E$ND39141786 phases=4 Bus1=39127306.0.1.2.3 Bus2=39141786.0.1.2.3 LineCode=336_ACSR_3PH_336_ACSR_N_12KV_4 Length=0.115841 units=km
New Line.1552705E$1552704E phases=2 Bus1=15722971.1.2 Bus2=240507271.1.2 LineCode=4_ACSR_2PH_12KV_2 Length=0.195313 units=km
New Line.ND135209047$1552446E phases=3 Bus1=15724225.0.1.2 Bus2=135209047.0.1.2 LineCode=1/0_ACSR_2PH_1/0_ACSR_N_12KV_3_N Length=0.039881 units=km
New Line.PS0369$ND15762831 phases=3 Bus1=15762831.1.2.3 Bus2=141693773.1.2.3 LineCode=4/0_ACSR_3PH_12KV_3 Length=0.009123 units=km
New Line.ND39141786$ND210042049 phases=4 Bus1=39141786.0.1.2.3 Bus2=210042049.0.1.2.3 LineCode=336_ACSR_3PH_336_ACSR_N_12KV_4 Length=0.061313 units=km
New Line.ND30672076$ND30673733 phases=3 Bus1=30673733.1.2.3 Bus2=30672076.1.2.3 LineCode=336_ACSR_3PH_12KV_3 Length=0.00676 units=km
New Line.ND30673733$ND30673574 phases=4 Bus1=30673733.0.1.2.3 Bus2=30673574.0.1.2.3 LineCode=336_ACSR_3PH_336_ACSR_N_12KV_4 Length=0.021073 units=km
New Line.263638E$ND39141786 phases=3 Bus1=39141786.1.2.3 Bus2=39140890.1.2.3 LineCode=1/0_ACSR_3PH_12KV_3 Length=0.024091 units=km
New Line.ND30673574$4265453E phases=4 Bus1=30673574.0.1.2.3 Bus2=30638814.0.1.2.3 LineCode=336_ACSR_3PH_336_ACSR_N_12KV_4 Length=0.052617 units=km
New Line.ND30673574$CTC1211263 phases=3 Bus1=30673574.1.2.3 Bus2=30639421.1.2.3 LineCode=336_ACSR_3PH_12KV_3 Length=0.042713 units=km
New Line.ND30672264$ND30672076 phases=3 Bus1=30672076.1.2.3 Bus2=30672264.1.2.3 LineCode=336_ACSR_3PH_12KV_3 Length=0.033871 units=km
New Line.ND210042049$263640S phases=4 Bus1=210042049.0.1.2.3 Bus2=39130756.0.1.2.3 LineCode=336_ACSR_3PH_336_ACSR_N_12KV_4 Length=0.079362 units=km
New Line.465457S$465459S phases=3 Bus1=15738107.1.2.3 Bus2=15738132.1.2.3 LineCode=2_ACSR_3PH_12KV_3 Length=0.115401 units=km
New Line.226495S$226497S phases=2 Bus1=15738182.1.2 Bus2=15738207.1.2 LineCode=4_ACSR_2PH_12KV_2 Length=0.079112 units=km
New Line.ND15762831$465145S phases=2 Bus1=15762831.2.3 Bus2=15754072.2.3 LineCode=2_ACSR_2PH_12KV_2 Length=0.114329 units=km
New Line.2155728E$ND15760836 phases=3 Bus1=15723796.0.1.3 Bus2=15760836.0.1.3 LineCode=2_ACSR_2PH_2_ACSR_N_12KV_3_N Length=0.0457 units=km
New Line.4697574E$ND135209047 phases=2 Bus1=135209047.1.2 Bus2=135087465.1.2 LineCode=1/0_ACSR_2PH_12KV_2 Length=0.024334 units=km
New Line.1552704E$1552703E phases=2 Bus1=240507272.1.2 Bus2=15722946.1.2 LineCode=4_ACSR_2PH_12KV_2 Length=0.083049 units=km
New Line.BF73424$2155502E phases=2 Bus1=15759549.1.3 Bus2=15722996.1.3 LineCode=4_ACSR_2PH_12KV_2 Length=0.031732 units=km
New Line.ND15760836$2155732E phases=2 Bus1=15760836.1.3 Bus2=15723821.1.3 LineCode=4_ACSR_2PH_12KV_2 Length=0.132879 units=km
New Line.PS0531$ND30672264 phases=3 Bus1=30672264.1.2.3 Bus2=30641546.1.2.3 LineCode=336_ACSR_3PH_12KV_3 Length=0.028609 units=km
New Line.4265453E$ND30672577 phases=4 Bus1=30638814.0.1.2.3 Bus2=30672577.0.1.2.3 LineCode=336_ACSR_3PH_336_ACSR_N_12KV_4 Length=0.06088 units=km
New Line.263638E$527870S phases=3 Bus1=39140891.1.2.3 Bus2=39140321.1.2.3 LineCode=1/0_ACSR_3PH_12KV_3 Length=0.024091 units=km
New Line.263640S$ND39141523 phases=4 Bus1=39130756.0.1.2.3 Bus2=39141523.0.1.2.3 LineCode=336_ACSR_3PH_336_ACSR_N_12KV_4 Length=0.157498 units=km
New Line.ND30672577$2263193E phases=3 Bus1=30672577.1.2.3 Bus2=30638382.1.2.3 LineCode=336_ACSR_3PH_12KV_3 Length=0.012785 units=km
New Line.ND30672577$ND30673353 phases=4 Bus1=30672577.0.1.2.3 Bus2=30673353.0.1.2.3 LineCode=336_ACSR_3PH_336_ACSR_N_12KV_4 Length=0.060098 units=km
New Line.ND39141523$263636S phases=3 Bus1=39141523.1.2.3 Bus2=39140237.1.2.3 LineCode=1/0_ACSR_3PH_12KV_3 Length=0.022911 units=km
New Line.ND39141523$ND39141524 phases=4 Bus1=39141523.0.1.2.3 Bus2=39141524.0.1.2.3 LineCode=336_ACSR_3PH_336_ACSR_N_12KV_4 Length=0.234054 units=km
New Line.ND15760836$FD73085 phases=3 Bus1=15760836.0.1.3 Bus2=15723904.0.1.3 LineCode=2_ACSR_2PH_2_ACSR_N_12KV_3_N Length=0.044071 units=km
New Line.FD73084$ND135209047 phases=3 Bus1=135209047.0.1.2 Bus2=15724233.0.1.2 LineCode=1/0_ACSR_2PH_1/0_ACSR_N_12KV_3_N Length=0.001514 units=km
New Line.465459S$ND15761819 phases=3 Bus1=15738132.1.2.3 Bus2=15761819.1.2.3 LineCode=2_ACSR_3PH_12KV_3 Length=0.046946 units=km
New Line.2155502E$2343736E phases=2 Bus1=15722996.1.3 Bus2=15723021.1.3 LineCode=4_ACSR_2PH_12KV_2 Length=0.099426 units=km
New Line.2155732E$2155735E phases=2 Bus1=15723821.1.3 Bus2=15723846.1.3 LineCode=4_ACSR_2PH_12KV_2 Length=0.141361 units=km
New Line.ND15761819$465461S phases=3 Bus1=15761819.1.2.3 Bus2=15738157.1.2.3 LineCode=2_ACSR_3PH_12KV_3 Length=0.084903 units=km
New Line.ND15760978$PS0369 phases=3 Bus1=141693774.1.2.3 Bus2=15760978.1.2.3 LineCode=4/0_ACSR_3PH_12KV_3 Length=0.093122 units=km
New Line.2343736E$2343735E phases=2 Bus1=15723021.1.3 Bus2=15723046.1.3 LineCode=4_ACSR_2PH_12KV_2 Length=0.027164 units=km
New Line.2155735E$2155738E phases=2 Bus1=15723846.1.3 Bus2=15723871.1.3 LineCode=4_ACSR_2PH_12KV_2 Length=0.154412 units=km
New Line.ND15760978$465831S phases=3 Bus1=15760978.1.2.3 Bus2=15728760.1.2.3 LineCode=4/0_ACSR_3PH_12KV_3 Length=0.161325 units=km
New Line.ND15760978$4907386E phases=2 Bus1=15760978.1.2 Bus2=15737728.1.2 LineCode=2_ACSR_2PH_12KV_2 Length=0.023933 units=km
New Line.2155738E$2155741E phases=2 Bus1=15723871.1.3 Bus2=15723896.1.3 LineCode=4_ACSR_2PH_12KV_2 Length=0.121273 units=km
New Line.4907386E$FD10015 phases=2 Bus1=15737728.1.2 Bus2=15737736.1.2 LineCode=4_ACSR_2PH_12KV_2 Length=0.043198 units=km
New Line.ND30673353$1552450E phases=3 Bus1=30673353.1.2.3 Bus2=30638529.1.2.3 LineCode=336_ACSR_3PH_12KV_3 Length=0.013955 units=km
New Line.ND30673353$4670731E phases=4 Bus1=30673353.0.1.2.3 Bus2=30638843.0.1.2.3 LineCode=336_ACSR_3PH_336_ACSR_N_12KV_4 Length=0.040976 units=km
New Line.ND39141524$4631313E phases=4 Bus1=39141524.0.1.2.3 Bus2=39130785.0.1.2.3 LineCode=336_ACSR_3PH_336_ACSR_N_12KV_4 Length=0.036736 units=km
New Line.2122618E$ND39141524 phases=3 Bus1=39141524.1.2.3 Bus2=39140878.1.2.3 LineCode=1/0_ACSR_3PH_12KV_3 Length=0.029283 units=km
New Line.4670731E$ND30673830 phases=4 Bus1=30638843.0.1.2.3 Bus2=30673830.0.1.2.3 LineCode=336_ACSR_3PH_336_ACSR_N_12KV_4 Length=0.056195 units=km
New Line.4631313E$ND39141359 phases=4 Bus1=39130785.0.1.2.3 Bus2=39141359.0.1.2.3 LineCode=336_ACSR_3PH_336_ACSR_N_12KV_4 Length=0.057391 units=km
New Line.1552450E$197297385 phases=3 Bus1=30638530.1.2.3 Bus2=197297387.1.2.3 LineCode=350_AL_3PH_12KV_3 Length=0.038918 units=km
New Line.181533211$P5442670-1 phases=3 Bus1=181533214.1.2.3 Bus2=39140338.1.2.3 LineCode=1/0_AL_3PH_12KV_3 Length=0.001509 units=km
New Line.ND15760190$193200307 phases=1 Bus1=15760190.1 Bus2=193200309.1 LineCode=2_CLP_1PH_12KV_1 Length=0.012107 units=km
New Line.P5162960-2$ND111454322 phases=1 Bus1=111454322.2 Bus2=15724262.2 LineCode=2_CLP_1PH_12KV_1 Length=0.175241 units=km
New Line.ND111454322$P5181331-1 phases=1 Bus1=111454322.2 Bus2=15724397.2 LineCode=2_CLP_1PH_12KV_1 Length=0.065208 units=km
New Line.193200307$P5186734-1 phases=1 Bus1=193200310.1 Bus2=15723921.1 LineCode=2_CLP_1PH_12KV_1 Length=0.000906 units=km
New Line.P5344884-A$FD10015 phases=2 Bus1=15737737.1.2 Bus2=207449224.1.2 LineCode=2_CLP_2PH_12KV_2 Length=0.05688 units=km