! OpenDSS script generated from multiconductor network
Clear

New Circuit.mc_network basekv=12.0 pu=1.000000 angle=0.00 frequency=60.0 phases=3 Mvasc3=143993 Mvasc1=47997.6
~ bus1=-8888882157132.1.2.3

! Line codes
New LineCode.1000_CLP_3PH_12KV_3 nphases=3 units=km Rmatrix=[ 0.026505 | 0 0.026505 | 0 0 0.026505 ] Xmatrix=[ 0.04012 | 0 0.04012 | 0 0 0.04012 ] Cmatrix=[ 0 | 0 0 | 0 0 0 ]
New LineCode.2_CLP_3PH_12KV_3 nphases=3 units=km Rmatrix=[ 0.055439 | 0 0.055439 | 0 0 0.055439 ] Xmatrix=[ 0.011686 | 0 0.011686 | 0 0 0.011686 ] Cmatrix=[ 0 | 0 0 | 0 0 0 ]
New LineCode.2_CLP_1PH_12KV_1 nphases=1 units=km Rmatrix=[ 0.136078 ] Xmatrix=[ 0.028683 ] Cmatrix=[ 0 ]
New LineCode.1/0_CLP_1PH_12KV_1 nphases=1 units=km Rmatrix=[ 0.054434 ] Xmatrix=[ 0.016638 ] Cmatrix=[ 0 ]
New LineCode.1/0_CLP_3PH_12KV_3 nphases=3 units=km Rmatrix=[ 0.003284 | 0 0.003284 | 0 0 0.003284 ] Xmatrix=[ 0.001004 | 0 0.001004 | 0 0 0.001004 ] Cmatrix=[ 0 | 0 0 | 0 0 0 ]
New LineCode.750_CLP_3PH_12KV_3 nphases=3 units=km Rmatrix=[ 0.008767 | 0 0.008767 | 0 0 0.008767 ] Xmatrix=[ 0.010767 | 0 0.010767 | 0 0 0.010767 ] Cmatrix=[ 0 | 0 0 | 0 0 0 ]
New LineCode.1/0_JCN_3PH_12KV_3 nphases=3 units=km Rmatrix=[ 0.027831 | 0 0.027831 | 0 0 0.027831 ] Xmatrix=[ 0.008506 | 0 0.008506 | 0 0 0.008506 ] Cmatrix=[ 0 | 0 0 | 0 0 0 ]
New LineCode.750_JCN_3PH_12KV_3 nphases=3 units=km Rmatrix=[ 0.014633 | 0 0.014633 | 0 0 0.014633 ] Xmatrix=[ 0.017971 | 0 0.017971 | 0 0 0.017971 ] Cmatrix=[ 0 | 0 0 | 0 0 0 ]
New LineCode.1/0_AL_3PH_12KV_3 nphases=3 units=km Rmatrix=[ 0.056201 | 0 0.056201 | 0 0 0.056201 ] Xmatrix=[ 0.017178 | 0 0.017178 | 0 0 0.017178 ] Cmatrix=[ 0 | 0 0 | 0 0 0 ]
New LineCode.1/0_CLP_2PH_12KV_2 nphases=2 units=km Rmatrix=[ 0.002931 | 0 0.002931 ] Xmatrix=[ 0.000896 | 0 0.000896 ] Cmatrix=[ 0 | 0 0 ]
New LineCode.336_ACSR_3PH_336_ACSR_N_12KV_4 nphases=4 units=km Rmatrix=[ 0.015453 | 0 0.015453 | 0 0 0.015453 | 0 0 0 0.015453 ] Xmatrix=[ 0.030816 | 0 0.030816 | 0 0 0.030816 | 0 0 0 0.030816 ] Cmatrix=[ 0 | 0 0 | 0 0 0 | 0 0 0 0 ]
New LineCode.2_CLP_2PH_12KV_2 nphases=2 units=km Rmatrix=[ 0.18127 | 0 0.18127 ] Xmatrix=[ 0.038208 | 0 0.038208 ] Cmatrix=[ 0 | 0 0 ]
New LineCode.350_AL_2PH_12KV_2 nphases=2 units=km Rmatrix=[ 0.000575 | 0 0.000575 ] Xmatrix=[ 0.000437 | 0 0.000437 ] Cmatrix=[ 0 | 0 0 ]
New LineCode.1000_JCN_3PH_12KV_3 nphases=3 units=km Rmatrix=[ 0.004574 | 0 0.004574 | 0 0 0.004574 ] Xmatrix=[ 0.006924 | 0 0.006924 | 0 0 0.006924 ] Cmatrix=[ 0 | 0 0 | 0 0 0 ]
New LineCode.750_CLP_1PH_12KV_1 nphases=1 units=km Rmatrix=[ 0.004072 ] Xmatrix=[ 0.005001 ] Cmatrix=[ 0 ]
New LineCode.653_ACSR_3PH_653_ACSR_N_12KV_4 nphases=4 units=km Rmatrix=[ 0.0072 | 0 0.0072 | 0 0 0.0072 | 0 0 0 0.0072 ] Xmatrix=[ 0.024481 | 0 0.024481 | 0 0 0.024481 | 0 0 0 0.024481 ] Cmatrix=[ 0 | 0 0 | 0 0 0 | 0 0 0 0 ]
New LineCode.653_ACSR_3PH_12KV_3 nphases=3 units=km Rmatrix=[ 0.002614 | 0 0.002614 | 0 0 0.002614 ] Xmatrix=[ 0.010148 | 0 0.010148 | 0 0 0.010148 ] Cmatrix=[ 0 | 0 0 | 0 0 0 ]
New LineCode.2_ACSR_3PH_2_ACSR_N_12KV_4 nphases=4 units=km Rmatrix=[ 0.00685 | 0 0.00685 | 0 0 0.00685 | 0 0 0 0.00685 ] Xmatrix=[ 0.003319 | 0 0.003319 | 0 0 0.003319 | 0 0 0 0.003319 ] Cmatrix=[ 0 | 0 0 | 0 0 0 | 0 0 0 0 ]
New LineCode.1/0_ACSR_3PH_1/0_ACSR_N_12KV_4 nphases=4 units=km Rmatrix=[ 0.002517 | 0 0.002517 | 0 0 0.002517 | 0 0 0 0.002517 ] Xmatrix=[ 0.001819 | 0 0.001819 | 0 0 0.001819 | 0 0 0 0.001819 ] Cmatrix=[ 0 | 0 0 | 0 0 0 | 0 0 0 0 ]
New LineCode.1/0_ACSR_3PH_12KV_3 nphases=3 units=km Rmatrix=[ 0.067229 | 0 0.067229 | 0 0 0.067229 ] Xmatrix=[ 0.053527 | 0 0.053527 | 0 0 0.053527 ] Cmatrix=[ 0 | 0 0 | 0 0 0 ]
New LineCode.350_AL_1PH_12KV_1 nphases=1 units=km Rmatrix=[ 0.026055 ] Xmatrix=[ 0.019796 ] Cmatrix=[ 0 ]
New LineCode.1/0_JCN_1PH_12KV_1 nphases=1 units=km Rmatrix=[ 0.045683 ] Xmatrix=[ 0.013963 ] Cmatrix=[ 0 ]
New LineCode.750_CLP_2PH_12KV_2 nphases=2 units=km Rmatrix=[ 0.002154 | 0 0.002154 ] Xmatrix=[ 0.002645 | 0 0.002645 ] Cmatrix=[ 0 | 0 0 ]
New LineCode.954_ACSR_3PH_954_ACSR_N_12KV_3 nphases=3 units=km Rmatrix=[ 1e-05 | 0 1e-05 | 0 0 1e-05 ] Xmatrix=[ 1e-05 | 0 1e-05 | 0 0 1e-05 ] Cmatrix=[ 0 | 0 0 | 0 0 0 ]

! Lines
New Line.ND50451463$ND191794107 phases=3 Bus1=50451463.1.2.3 Bus2=191794107.1.2.3 LineCode=1000_CLP_3PH_12KV_3 Length=0.426182 units=km
New Line.1618042E$ND191794107 phases=3 Bus1=191794107.1.2.3 Bus2=50438003.1.2.3 LineCode=1000_CLP_3PH_12KV_3 Length=0.313947 units=km
New Line.2131031E$P5193625-1 phases=3 Bus1=50438033.1.2.3 Bus2=50422311.1.2.3 LineCode=2_CLP_3PH_12KV_3 Length=0.075024 units=km
New Line.2131035E$P5337487-1 phases=3 Bus1=50438046.1.2.3 Bus2=50422359.1.2.3 LineCode=2_CLP_3PH_12KV_3 Length=0.162501 units=km
New Line.B5158962-2$FD34404 phases=1 Bus1=50438135.2 Bus2=50422488.2 LineCode=2_CLP_1PH_12KV_1 Length=0.099235 units=km
New Line.B5168912-2$FD34403 phases=1 Bus1=50438148.3 Bus2=50437943.3 LineCode=2_CLP_1PH_12KV_1 Length=0.061024 units=km
New Line.B5158963-2$B5158962-1 phases=1 Bus1=50422479.2 Bus2=50422560.2 LineCode=2_CLP_1PH_12KV_1 Length=0.177204 units=km
New Line.B5168912-1$B5196349-1 phases=1 Bus1=50437934.3 Bus2=50422695.3 LineCode=2_CLP_1PH_12KV_1 Length=0.056648 units=km
New Line.B5196296-2$FD34402 phases=1 Bus1=50438161.1 Bus2=50423211.1 LineCode=2_CLP_1PH_12KV_1 Length=0.067536 units=km
New Line.B5131848-2$FD34401 phases=1 Bus1=50438174.1 Bus2=50423286.1 LineCode=1/0_CLP_1PH_12KV_1 Length=0.026679 units=km
New Line.B5158963-1$B5158964-2 phases=1 Bus1=50422551.2 Bus2=50422416.2 LineCode=2_CLP_1PH_12KV_1 Length=0.193364 units=km
New Line.B5196347-2$B5196349-2 phases=1 Bus1=50422704.3 Bus2=50422779.3 LineCode=2_CLP_1PH_12KV_1 Length=0.122586 units=km
New Line.B5196296-1$ND50451184 phases=1 Bus1=50423202.1 Bus2=50451184.1 LineCode=2_CLP_1PH_12KV_1 Length=0.013057 units=km
New Line.B5056641-1$928E phases=1 Bus1=50437921.3 Bus2=50423440.3 LineCode=1/0_CLP_1PH_12KV_1 Length=0.090838 units=km
New Line.B5196344-2$ND50451184 phases=1 Bus1=50451184.1 Bus2=50424388.1 LineCode=2_CLP_1PH_12KV_1 Length=0.078157 units=km
New Line.B5196297-2$ND50451184 phases=1 Bus1=50451184.1 Bus2=50437414.1 LineCode=2_CLP_1PH_12KV_1 Length=0.094909 units=km
New Line.B5131847-1$B5131848-1 phases=1 Bus1=50423277.1 Bus2=50437477.1 LineCode=1/0_CLP_1PH_12KV_1 Length=0.100969 units=km
New Line.3928E$ND50451769 phases=3 Bus1=50423346.1.2.3 Bus2=50451769.1.2.3 LineCode=1/0_CLP_3PH_12KV_3 Length=0.420011 units=km
New Line.ND50451769$B5056647-1 phases=1 Bus1=50451769.3 Bus2=50423659.3 LineCode=1/0_CLP_1PH_12KV_1 Length=0.152605 units=km
New Line.B5131592-2$ND50451769 phases=3 Bus1=50451769.1.2.3 Bus2=50424172.1.2.3 LineCode=1/0_CLP_3PH_12KV_3 Length=0.002647 units=km
New Line.GS5056-3$4211126E phases=3 Bus1=50438331.1.2.3 Bus2=50438217.1.2.3 LineCode=750_CLP_3PH_12KV_3 Length=0.077895 units=km
New Line.B5196348-1$B5196347-1 phases=1 Bus1=50422770.3 Bus2=50422842.3 LineCode=2_CLP_1PH_12KV_1 Length=0.096974 units=km
New Line.B5056642-1$B5056641-2 phases=1 Bus1=50423449.3 Bus2=50423512.3 LineCode=1/0_CLP_1PH_12KV_1 Length=0.11242 units=km
New Line.B5196344-1$B5196345-2 phases=1 Bus1=50424379.1 Bus2=50424316.1 LineCode=2_CLP_1PH_12KV_1 Length=0.094287 units=km
New Line.B5196297-1$B5196298-1 phases=1 Bus1=50437405.1 Bus2=50437333.1 LineCode=2_CLP_1PH_12KV_1 Length=0.121659 units=km
New Line.B5131847-2$ND50451096 phases=1 Bus1=50437486.1 Bus2=50451096.1 LineCode=1/0_CLP_1PH_12KV_1 Length=0.004873 units=km
New Line.B5131593-1$B5131592-1 phases=1 Bus1=50424163.3 Bus2=50424235.3 LineCode=1/0_CLP_1PH_12KV_1 Length=0.115799 units=km
New Line.B5131840-1$ND50451096 phases=1 Bus1=50451096.1 Bus2=50437549.1 LineCode=1/0_CLP_1PH_12KV_1 Length=0.135066 units=km
New Line.ND50451096$B5131846-1 phases=1 Bus1=50451096.1 Bus2=50437780.1 LineCode=1/0_CLP_1PH_12KV_1 Length=0.125179 units=km
New Line.GS5056-2$254834885 phases=3 Bus1=50438209.1.2.3 Bus2=254834887.1.2.3 LineCode=1/0_JCN_3PH_12KV_3 Length=0.117431 units=km
New Line.B5196579-1$B5196348-2 phases=1 Bus1=50422851.3 Bus2=50422914.3 LineCode=2_CLP_1PH_12KV_1 Length=0.122036 units=km
New Line.B5196345-1$B5196346-2 phases=1 Bus1=50424307.1 Bus2=50423139.1 LineCode=2_CLP_1PH_12KV_1 Length=0.090248 units=km
New Line.B5056643-1$B5056642-2 phases=1 Bus1=50423521.3 Bus2=50423803.3 LineCode=1/0_CLP_1PH_12KV_1 Length=0.084837 units=km
New Line.GS4490-4$GS5056-1 phases=3 Bus1=50438201.1.2.3 Bus2=50438492.1.2.3 LineCode=750_CLP_3PH_12KV_3 Length=0.560543 units=km
New Line.254834885$J797-1P phases=3 Bus1=254834888.1.2.3 Bus2=254834300.1.2.3 LineCode=1/0_JCN_3PH_12KV_3 Length=0.001814 units=km
New Line.B5131594-1$B5131593-2 phases=1 Bus1=50424244.3 Bus2=50423947.3 LineCode=1/0_CLP_1PH_12KV_1 Length=0.038395 units=km
New Line.B5131840-2$ND50451260 phases=1 Bus1=50437558.1 Bus2=50451260.1 LineCode=1/0_CLP_1PH_12KV_1 Length=0.000717 units=km
New Line.ND50451260$ND148925578 phases=1 Bus1=50451260.1 Bus2=148925578.1 LineCode=1/0_CLP_1PH_12KV_1 Length=0.002044 units=km
New Line.B5196578-1$B5196579-2 phases=1 Bus1=50422923.3 Bus2=50422986.3 LineCode=2_CLP_1PH_12KV_1 Length=0.131992 units=km
New Line.B5056643-2$B5056644-2 phases=1 Bus1=50423812.3 Bus2=50423884.3 LineCode=1/0_CLP_1PH_12KV_1 Length=0.077215 units=km
New Line.ND148925578$B5131842-1 phases=1 Bus1=148925578.1 Bus2=50437708.1 LineCode=1/0_CLP_1PH_12KV_1 Length=0.126082 units=km
New Line.B5131841-1$ND148925578 phases=1 Bus1=148925578.1 Bus2=50437852.1 LineCode=1/0_CLP_1PH_12KV_1 Length=0.068269 units=km
New Line.GS4490-3$J874-2P phases=3 Bus1=50438484.1.2.3 Bus2=207462860.1.2.3 LineCode=1/0_JCN_3PH_12KV_3 Length=0.109112 units=km
New Line.B5131594-2$B5131839-1 phases=1 Bus1=50423956.3 Bus2=50423731.3 LineCode=1/0_CLP_1PH_12KV_1 Length=0.12225 units=km
New Line.J797-2P$254834912 phases=3 Bus1=254834324.1.2.3 Bus2=254834915.1.2.3 LineCode=1/0_JCN_3PH_12KV_3 Length=0.001769 units=km
New Line.B5196577-1$B5196578-2 phases=1 Bus1=50422995.3 Bus2=50423058.3 LineCode=2_CLP_1PH_12KV_1 Length=0.114862 units=km
New Line.GS4490-2$ND50450820 phases=3 Bus1=50438468.1.2.3 Bus2=50450820.1.2.3 LineCode=1/0_CLP_3PH_12KV_3 Length=0.144137 units=km
New Line.ND50450820$P5193648-A phases=3 Bus1=50450820.1.2.3 Bus2=151737574.1.2.3 LineCode=1/0_CLP_3PH_12KV_3 Length=0.071712 units=km
New Line.GS4490-1$GS4487-1 phases=3 Bus1=50438476.1.2.3 Bus2=189120992.1.2.3 LineCode=750_CLP_3PH_12KV_3 Length=0.299626 units=km
New Line.B5056644-1$B5056645-2 phases=1 Bus1=50423875.3 Bus2=50423593.3 LineCode=1/0_CLP_1PH_12KV_1 Length=0.092773 units=km
New Line.ND50450820$P5300182-1 phases=3 Bus1=50450820.1.2.3 Bus2=50438844.1.2.3 LineCode=2_CLP_3PH_12KV_3 Length=0.049574 units=km
New Line.J797-4P$254834937 phases=3 Bus1=254834316.1.2.3 Bus2=254834940.1.2.3 LineCode=1/0_JCN_3PH_12KV_3 Length=0.001996 units=km
New Line.254834912$254834962 phases=3 Bus1=254834914.1.2.3 Bus2=254834964.1.2.3 LineCode=1/0_JCN_3PH_12KV_3 Length=0.074014 units=km
New Line.P5400647-A$J874-1P phases=3 Bus1=207462836.1.2.3 Bus2=152845058.1.2.3 LineCode=2_CLP_3PH_12KV_3 Length=0.073478 units=km
New Line.191310741$J874-3P phases=3 Bus1=207462844.1.2.3 Bus2=191310743.1.2.3 LineCode=1/0_JCN_3PH_12KV_3 Length=0.039485 units=km
New Line.B5196577-2$B5196576-2 phases=1 Bus1=50423067.3 Bus2=50422632.3 LineCode=2_CLP_1PH_12KV_1 Length=0.103176 units=km
New Line.P5193649-A$P5193648-B phases=3 Bus1=151737557.1.2.3 Bus2=151737663.1.2.3 LineCode=1/0_CLP_3PH_12KV_3 Length=0.041455 units=km
New Line.254834962$P5751796-A phases=3 Bus1=254834965.1.2.3 Bus2=254834577.1.2.3 LineCode=1/0_JCN_3PH_12KV_3 Length=0.002091 units=km
New Line.254834937$254834987 phases=3 Bus1=254834939.1.2.3 Bus2=254834989.1.2.3 LineCode=1/0_JCN_3PH_12KV_3 Length=0.227 units=km
New Line.B5056645-1$B5056646-2 phases=1 Bus1=50423584.3 Bus2=50423374.3 LineCode=1/0_CLP_1PH_12KV_1 Length=0.09686 units=km
New Line.191310741$P5633482-1 phases=3 Bus1=191310744.1.2.3 Bus2=191310682.1.2.3 LineCode=1/0_JCN_3PH_12KV_3 Length=0.00379 units=km
New Line.ND50450963$GS4487-2 phases=3 Bus1=189121001.1.2.3 Bus2=50450963.1.2.3 LineCode=1/0_CLP_3PH_12KV_3 Length=0.063188 units=km
New Line.P5383810-1$ND50450963 phases=3 Bus1=50450963.1.2.3 Bus2=151712700.1.2.3 LineCode=1/0_CLP_3PH_12KV_3 Length=0.117815 units=km
New Line.GS4487-3$P5383819-A phases=3 Bus1=189121010.1.2.3 Bus2=151738211.1.2.3 LineCode=1/0_CLP_3PH_12KV_3 Length=0.12385 units=km
New Line.254834987$J800-1P phases=3 Bus1=254834990.1.2.3 Bus2=254834428.1.2.3 LineCode=1/0_JCN_3PH_12KV_3 Length=0.001615 units=km
New Line.P5400649-1$P5400647-B phases=3 Bus1=152845076.1.2.3 Bus2=50439023.1.2.3 LineCode=2_CLP_3PH_12KV_3 Length=0.167963 units=km
New Line.ND50450963$V5391873 phases=3 Bus1=50450963.1.2.3 Bus2=50450466.1.2.3 LineCode=1/0_CLP_3PH_12KV_3 Length=0.011005 units=km
New Line.ND106479157$GS4487-4 phases=3 Bus1=189121019.1.2.3 Bus2=106479157.1.2.3 LineCode=1/0_CLP_3PH_12KV_3 Length=0.04457 units=km
New Line.F5193650-1$P5193649-B phases=3 Bus1=151737646.1.2.3 Bus2=50438630.1.2.3 LineCode=1/0_CLP_3PH_12KV_3 Length=0.170648 units=km
New Line.106479645$ND106479157 phases=3 Bus1=106479157.1.2.3 Bus2=106479647.1.2.3 LineCode=1/0_CLP_3PH_12KV_3 Length=0.061232 units=km
New Line.ND191276239$GS4487-5 phases=3 Bus1=189121028.1.2.3 Bus2=191276239.1.2.3 LineCode=750_CLP_3PH_12KV_3 Length=0.028848 units=km
New Line.ND106479157$ND50451054 phases=3 Bus1=106479157.1.2.3 Bus2=50451054.1.2.3 LineCode=1/0_CLP_3PH_12KV_3 Length=0.008494 units=km
New Line.ND106479062$ND50451054 phases=3 Bus1=50451054.1.2.3 Bus2=106479062.1.2.3 LineCode=1/0_CLP_3PH_12KV_3 Length=0.010473 units=km
New Line.ND191276239$ND222777403 phases=3 Bus1=191276239.1.2.3 Bus2=222777403.1.2.3 LineCode=750_JCN_3PH_12KV_3 Length=0.130198 units=km
New Line.ND191276239$RCS4489-2 phases=3 Bus1=191276239.1.2.3 Bus2=42965876.1.2.3 LineCode=750_CLP_3PH_12KV_3 Length=0.453959 units=km
New Line.P5383819-B$BS4468-T phases=3 Bus1=151738229.1.2.3 Bus2=50439425.1.2.3 LineCode=1/0_CLP_3PH_12KV_3 Length=0.161074 units=km
New Line.106479645$P5595351-A phases=3 Bus1=106479648.1.2.3 Bus2=151737895.1.2.3 LineCode=1/0_CLP_3PH_12KV_3 Length=0.007537 units=km
New Line.ND106479062$184973457 phases=3 Bus1=106479062.1.2.3 Bus2=184973459.1.2.3 LineCode=1/0_CLP_3PH_12KV_3 Length=0.100646 units=km
New Line.ND222777403$191276316 phases=3 Bus1=222777403.1.2.3 Bus2=191276318.1.2.3 LineCode=1/0_JCN_3PH_12KV_3 Length=0.026455 units=km
New Line.J800-2P$310284346 phases=3 Bus1=254834452.1.2.3 Bus2=310284349.1.2.3 LineCode=1/0_JCN_3PH_12KV_3 Length=0.001534 units=km
New Line.BS3689-T$ND106479062 phases=3 Bus1=106479062.1.2.3 Bus2=50439556.1.2.3 LineCode=1/0_CLP_3PH_12KV_3 Length=0.174304 units=km
New Line.184973457$P5196451-A phases=3 Bus1=184973460.1.2.3 Bus2=151739037.1.2.3 LineCode=1/0_CLP_3PH_12KV_3 Length=0.002257 units=km
New Line.BS4468-R$182990821 phases=3 Bus1=50439417.1.2.3 Bus2=182990823.1.2.3 LineCode=1/0_CLP_3PH_12KV_3 Length=0.113481 units=km
New Line.191276316$P5633483-1 phases=3 Bus1=191276319.1.2.3 Bus2=191276280.1.2.3 LineCode=1/0_JCN_3PH_12KV_3 Length=0.004064 units=km
New Line.J800-4P$254835012 phases=3 Bus1=254834444.1.2.3 Bus2=254835015.1.2.3 LineCode=1/0_JCN_3PH_12KV_3 Length=0.001564 units=km
New Line.310284346$310284319 phases=3 Bus1=310284348.1.2.3 Bus2=310284321.1.2.3 LineCode=1/0_JCN_3PH_12KV_3 Length=0.0964 units=km
New Line.106479672$P5595351-B phases=3 Bus1=151737878.1.2.3 Bus2=106479675.1.2.3 LineCode=1/0_CLP_3PH_12KV_3 Length=0.006388 units=km
New Line.RCS4489-3$ND43012111 phases=3 Bus1=42965884.1.2.3 Bus2=43012111.1.2.3 LineCode=1/0_CLP_3PH_12KV_3 Length=0.191772 units=km
New Line.BS3689-L$P5132036-1 phases=3 Bus1=50439548.1.2.3 Bus2=50439312.1.2.3 LineCode=1/0_CLP_3PH_12KV_3 Length=0.079103 units=km
New Line.BS3689-R$P5347976-1 phases=3 Bus1=50439565.1.2.3 Bus2=50439360.1.2.3 LineCode=1/0_CLP_3PH_12KV_3 Length=0.076198 units=km
New Line.182990821$P5383817-A phases=3 Bus1=182990824.1.2.3 Bus2=156181759.1.2.3 LineCode=1/0_CLP_3PH_12KV_3 Length=0.002916 units=km
New Line.RCS4489-4$173120703 phases=3 Bus1=42965900.1.2.3 Bus2=173120705.1.2.3 LineCode=1/0_CLP_3PH_12KV_3 Length=0.134154 units=km
New Line.ND43012111$ND194754514 phases=3 Bus1=43012111.1.2.3 Bus2=194754514.1.2.3 LineCode=1/0_CLP_3PH_12KV_3 Length=0.086028 units=km
New Line.254835012$254835037 phases=3 Bus1=254835014.1.2.3 Bus2=254835039.1.2.3 LineCode=1/0_JCN_3PH_12KV_3 Length=0.099627 units=km
New Line.310284319$P5751798-1 phases=3 Bus1=310284322.1.2.3 Bus2=310284267.1.2.3 LineCode=1/0_JCN_3PH_12KV_3 Length=0.001942 units=km
New Line.106479672$J461-3P phases=3 Bus1=106479674.1.2.3 Bus2=106479262.1.2.3 LineCode=1/0_CLP_3PH_12KV_3 Length=0.037694 units=km
New Line.ND43012239$P5398231-A phases=3 Bus1=43012239.1.2.3 Bus2=151909049.1.2.3 LineCode=1/0_CLP_3PH_12KV_3 Length=0.052528 units=km
New Line.RCS4489-5$ND197130344 phases=3 Bus1=42965908.1.2.3 Bus2=197130344.1.2.3 LineCode=750_CLP_3PH_12KV_3 Length=0.044236 units=km
New Line.ND43012239$P5400130-1 phases=3 Bus1=43012239.1.2.3 Bus2=43009176.1.2.3 LineCode=1/0_AL_3PH_12KV_3 Length=0.079896 units=km
New Line.ND194754514$PMS4830-1 phases=2 Bus1=194754514.1.2 Bus2=43009682.1.2 LineCode=1/0_CLP_2PH_12KV_2 Length=0.02799 units=km
New Line.173120703$P5391864-A phases=3 Bus1=173120706.1.2.3 Bus2=151908879.1.2.3 LineCode=1/0_CLP_3PH_12KV_3 Length=0.003189 units=km
New Line.254835037$P5751801-A phases=3 Bus1=254835040.1.2.3 Bus2=254834782.1.2.3 LineCode=1/0_JCN_3PH_12KV_3 Length=0.002338 units=km
New Line.ND197130344$487E phases=3 Bus1=197130344.1.2.3 Bus2=42966136.1.2.3 LineCode=750_CLP_3PH_12KV_3 Length=0.169483 units=km
New Line.ND43060874$RCS4489-6 phases=3 Bus1=42965916.1.2.3 Bus2=43060874.1.2.3 LineCode=750_CLP_3PH_12KV_3 Length=0.289127 units=km
New Line.P5383817-B$182990848 phases=3 Bus1=156181777.1.2.3 Bus2=182990851.1.2.3 LineCode=1/0_CLP_3PH_12KV_3 Length=0.108718 units=km
New Line.ND43060874$GS8866-1 phases=3 Bus1=43060874.1.2.3 Bus2=258284520.1.2.3 LineCode=750_CLP_3PH_12KV_3 Length=0.37224 units=km
New Line.P5057379-1$PMS4830-1 phases=2 Bus1=43009681.1.2 Bus2=43009224.1.2 LineCode=1/0_CLP_2PH_12KV_2 Length=0.058578 units=km
New Line.ND43060874$M5383545 phases=3 Bus1=43060874.1.2.3 Bus2=43011314.1.2.3 LineCode=1/0_CLP_3PH_12KV_3 Length=0.002585 units=km
New Line.P5398231-B$P5398232-A phases=3 Bus1=151909067.1.2.3 Bus2=151909171.1.2.3 LineCode=1/0_CLP_3PH_12KV_3 Length=0.097751 units=km
New Line.ND165800756$487E phases=4 Bus1=42966135.0.1.2.3 Bus2=165800756.0.1.2.3 LineCode=336_ACSR_3PH_336_ACSR_N_12KV_4 Length=0.106207 units=km
New Line.J461-2P$P5601462-1 phases=2 Bus1=106479270.1.2 Bus2=106171367.1.2 LineCode=2_CLP_2PH_12KV_2 Length=0.131589 units=km
New Line.182990848$156181881 phases=3 Bus1=182990850.1.2.3 Bus2=156181883.1.2.3 LineCode=1/0_CLP_3PH_12KV_3 Length=0.059505 units=km
New Line.ND165800735$ND165800756 phases=4 Bus1=165800756.0.1.2.3 Bus2=165800735.0.1.2.3 LineCode=336_ACSR_3PH_336_ACSR_N_12KV_4 Length=0.035994 units=km
New Line.P5391864-B$173120757 phases=3 Bus1=151908897.1.2.3 Bus2=173120760.1.2.3 LineCode=1/0_CLP_3PH_12KV_3 Length=0.003246 units=km
New Line.1598686E$ND165800756 phases=4 Bus1=165800756.0.1.2.3 Bus2=42966148.0.1.2.3 LineCode=336_ACSR_3PH_336_ACSR_N_12KV_4 Length=0.072663 units=km
New Line.106479707$J461-1P phases=3 Bus1=106479254.1.2.3 Bus2=106479709.1.2.3 LineCode=1/0_CLP_3PH_12KV_3 Length=0.075135 units=km
New Line.4407194E$ND165800735 phases=4 Bus1=165800735.0.1.2.3 Bus2=165800282.0.1.2.3 LineCode=336_ACSR_3PH_336_ACSR_N_12KV_4 Length=0.090775 units=km
New Line.197859028$P5057379-2 phases=2 Bus1=43009233.1.2 Bus2=197859030.1.2 LineCode=1/0_CLP_2PH_12KV_2 Length=0.088397 units=km
New Line.896E$ND165800735 phases=4 Bus1=165800735.0.1.2.3 Bus2=42966311.0.1.2.3 LineCode=336_ACSR_3PH_336_ACSR_N_12KV_4 Length=0.017325 units=km
New Line.156181881$P5383816-A phases=3 Bus1=156181884.1.2.3 Bus2=151738479.1.2.3 LineCode=1/0_CLP_3PH_12KV_3 Length=0.00411 units=km
New Line.P5383811-A$173120757 phases=3 Bus1=173120759.1.2.3 Bus2=151738745.1.2.3 LineCode=1/0_CLP_3PH_12KV_3 Length=0.129035 units=km
New Line.GS8866-2$V5709863 phases=3 Bus1=258284529.1.2.3 Bus2=258284888.1.2.3 LineCode=1/0_JCN_3PH_12KV_3 Length=0.007453 units=km
New Line.4171734E$4407194E phases=4 Bus1=165800282.0.1.2.3 Bus2=42939855.0.1.2.3 LineCode=336_ACSR_3PH_336_ACSR_N_12KV_4 Length=0.014132 units=km
New Line.PME3017-1$1598686E phases=3 Bus1=42966149.1.2.3 Bus2=42966198.1.2.3 LineCode=750_CLP_3PH_12KV_3 Length=0.112694 units=km
New Line.P5398233-1$P5398232-B phases=3 Bus1=151909154.1.2.3 Bus2=43009128.1.2.3 LineCode=1/0_CLP_3PH_12KV_3 Length=0.091209 units=km
New Line.106479707$P5595352-A phases=3 Bus1=106479710.1.2.3 Bus2=151737786.1.2.3 LineCode=1/0_CLP_3PH_12KV_3 Length=0.006864 units=km
New Line.ND165800336$4171734E phases=4 Bus1=42939855.0.1.2.3 Bus2=165800336.0.1.2.3 LineCode=336_ACSR_3PH_336_ACSR_N_12KV_4 Length=0.014569 units=km
New Line.896E$196331816 phases=2 Bus1=42966312.2.3 Bus2=196331818.2.3 LineCode=350_AL_2PH_12KV_2 Length=0.005215 units=km
New Line.P5057378-A$197859028 phases=2 Bus1=197859031.1.2 Bus2=43009305.1.2 LineCode=1/0_CLP_2PH_12KV_2 Length=0.002832 units=km
New Line.ND165800695$ND165800336 phases=4 Bus1=165800336.0.1.2.3 Bus2=165800695.0.1.2.3 LineCode=336_ACSR_3PH_336_ACSR_N_12KV_4 Length=0.088074 units=km
New Line.ND258285045$GS8866-4 phases=3 Bus1=258284547.1.2.3 Bus2=258285045.1.2.3 LineCode=1000_JCN_3PH_12KV_3 Length=0.165039 units=km
New Line.ND165800336$279E phases=4 Bus1=165800336.0.1.2.3 Bus2=42966715.0.1.2.3 LineCode=336_ACSR_3PH_336_ACSR_N_12KV_4 Length=0.102642 units=km
New Line.P5383811-B$P5383812-A phases=3 Bus1=151738763.1.2.3 Bus2=151738877.1.2.3 LineCode=1/0_CLP_3PH_12KV_3 Length=0.137212 units=km
New Line.156181893$P5383816-B phases=3 Bus1=151738497.1.2.3 Bus2=156181896.1.2.3 LineCode=1/0_CLP_3PH_12KV_3 Length=0.002934 units=km
New Line.ND165800713$ND165800695 phases=4 Bus1=165800695.0.1.2.3 Bus2=165800713.0.1.2.3 LineCode=336_ACSR_3PH_336_ACSR_N_12KV_4 Length=0.047031 units=km
New Line.PME3017-4$242794489 phases=1 Bus1=42966180.1 Bus2=242794492.1 LineCode=750_CLP_1PH_12KV_1 Length=0.000573 units=km
New Line.RCS8865-1$ND258285045 phases=3 Bus1=258285045.1.2.3 Bus2=258284674.1.2.3 LineCode=1000_JCN_3PH_12KV_3 Length=0.011745 units=km
New Line.V5709864$ND258285045 phases=3 Bus1=258285045.1.2.3 Bus2=258285029.1.2.3 LineCode=1/0_JCN_3PH_12KV_3 Length=0.003556 units=km
New Line.196331816$P5057368-A phases=2 Bus1=196331819.2.3 Bus2=42966337.2.3 LineCode=350_AL_2PH_12KV_2 Length=0.002797 units=km
New Line.106479732$P5595352-B phases=3 Bus1=151737769.1.2.3 Bus2=106479735.1.2.3 LineCode=1/0_CLP_3PH_12KV_3 Length=0.004833 units=km
New Line.RCS6829$ND165800713 phases=4 Bus1=165800713.0.1.2.3 Bus2=138198592.0.1.2.3 LineCode=336_ACSR_3PH_336_ACSR_N_12KV_4 Length=0.077516 units=km
New Line.279E$185609340 phases=2 Bus1=42966716.2.3 Bus2=185609342.2.3 LineCode=350_AL_2PH_12KV_2 Length=0.027828 units=km
New Line.PME3017-3$192734432 phases=3 Bus1=42966171.1.2.3 Bus2=192734435.1.2.3 LineCode=2_CLP_3PH_12KV_3 Length=0.001206 units=km
New Line.P5057378-B$197859001 phases=2 Bus1=43009296.1.2 Bus2=197859004.1.2 LineCode=1/0_CLP_2PH_12KV_2 Length=0.097764 units=km
New Line.277E$ND165800713 phases=4 Bus1=165800713.0.1.2.3 Bus2=42967036.0.1.2.3 LineCode=336_ACSR_3PH_336_ACSR_N_12KV_4 Length=0.0036 units=km
New Line.PME3018-1$PME3017-2 phases=3 Bus1=42966189.1.2.3 Bus2=42995515.1.2.3 LineCode=750_CLP_3PH_12KV_3 Length=0.582802 units=km
New Line.156181893$P5383815-A phases=3 Bus1=156181895.1.2.3 Bus2=151738611.1.2.3 LineCode=1/0_CLP_3PH_12KV_3 Length=0.106088 units=km
New Line.PS7637$ND50450930 phases=4 Bus1=190813019.0.1.2.3 Bus2=50450930.0.1.2.3 LineCode=653_ACSR_3PH_653_ACSR_N_12KV_4 Length=0.081747 units=km
New Line.ND50450930$2131031E phases=3 Bus1=50450930.1.2.3 Bus2=50438032.1.2.3 LineCode=653_ACSR_3PH_12KV_3 Length=0.023923 units=km
New Line.ND50450930$ND50450513 phases=4 Bus1=50450930.0.1.2.3 Bus2=50450513.0.1.2.3 LineCode=653_ACSR_3PH_653_ACSR_N_12KV_4 Length=0.023923 units=km
New Line.ND50450513$ND50451601 phases=4 Bus1=50450513.0.1.2.3 Bus2=50451601.0.1.2.3 LineCode=653_ACSR_3PH_653_ACSR_N_12KV_4 Length=0.148158 units=km
New Line.ND50451601$2131035E phases=3 Bus1=50451601.1.2.3 Bus2=50438045.1.2.3 LineCode=653_ACSR_3PH_12KV_3 Length=0.079512 units=km
New Line.ND50451601$2131036E phases=4 Bus1=50451601.0.1.2.3 Bus2=50450282.0.1.2.3 LineCode=336_ACSR_3PH_336_ACSR_N_12KV_4 Length=0.033775 units=km
New Line.2131036E$ND50450922 phases=4 Bus1=50450282.0.1.2.3 Bus2=50450922.0.1.2.3 LineCode=336_ACSR_3PH_336_ACSR_N_12KV_4 Length=0.137726 units=km
New Line.ND50450922$ND174668154 phases=4 Bus1=50450922.0.1.2.3 Bus2=174668154.0.1.2.3 LineCode=336_ACSR_3PH_336_ACSR_N_12KV_4 Length=0.126695 units=km
New Line.ND50450922$FD34404 phases=4 Bus1=50450922.0.1.2.3 Bus2=50438134.0.1.2.3 LineCode=2_ACSR_3PH_2_ACSR_N_12KV_4 Length=0.001793 units=km
New Line.ND174668154$2283957E phases=4 Bus1=174668154.0.1.2.3 Bus2=50437636.0.1.2.3 LineCode=653_ACSR_3PH_653_ACSR_N_12KV_4 Length=0.258246 units=km
New Line.ND174668154$FD34403 phases=4 Bus1=174668154.0.1.2.3 Bus2=50438147.0.1.2.3 LineCode=2_ACSR_3PH_2_ACSR_N_12KV_4 Length=0.128179 units=km
New Line.2283957E$ND50450523 phases=4 Bus1=50437636.0.1.2.3 Bus2=50450523.0.1.2.3 LineCode=336_ACSR_3PH_336_ACSR_N_12KV_4 Length=0.06569 units=km
New Line.ND50450523$ND50451010 phases=4 Bus1=50450523.0.1.2.3 Bus2=50451010.0.1.2.3 LineCode=336_ACSR_3PH_336_ACSR_N_12KV_4 Length=0.050648 units=km
New Line.ND50451010$FD34402 phases=4 Bus1=50451010.0.1.2.3 Bus2=50438160.0.1.2.3 LineCode=2_ACSR_3PH_2_ACSR_N_12KV_4 Length=0.123441 units=km
New Line.ND50451010$ND50451011 phases=4 Bus1=50451010.0.1.2.3 Bus2=50451011.0.1.2.3 LineCode=653_ACSR_3PH_653_ACSR_N_12KV_4 Length=0.072793 units=km
New Line.ND50451011$FD34401 phases=4 Bus1=50451011.0.1.2.3 Bus2=50438173.0.1.2.3 LineCode=1/0_ACSR_3PH_1/0_ACSR_N_12KV_4 Length=0.15144 units=km
New Line.ND50451011$RCS5933 phases=4 Bus1=50451011.0.1.2.3 Bus2=90375939.0.1.2.3 LineCode=653_ACSR_3PH_653_ACSR_N_12KV_4 Length=0.078647 units=km
New Line.RCS5933$ND50450890 phases=4 Bus1=90375940.0.1.2.3 Bus2=50450890.0.1.2.3 LineCode=653_ACSR_3PH_653_ACSR_N_12KV_4 Length=0.070483 units=km
New Line.ND50450890$3928E phases=4 Bus1=50450890.0.1.2.3 Bus2=50423345.0.1.2.3 LineCode=1/0_ACSR_3PH_1/0_ACSR_N_12KV_4 Length=0.13213 units=km
New Line.ND50450890$928E phases=4 Bus1=50450890.0.1.2.3 Bus2=50437920.0.1.2.3 LineCode=1/0_ACSR_3PH_1/0_ACSR_N_12KV_4 Length=0.007865 units=km
New Line.ND50450890$ND50451177 phases=4 Bus1=50450890.0.1.2.3 Bus2=50451177.0.1.2.3 LineCode=653_ACSR_3PH_653_ACSR_N_12KV_4 Length=0.137152 units=km
New Line.RCS6921$ND50451177 phases=4 Bus1=50451177.0.1.2.3 Bus2=148925026.0.1.2.3 LineCode=653_ACSR_3PH_653_ACSR_N_12KV_4 Length=0.227755 units=km
New Line.ND43012111$ND43012239 phases=3 Bus1=43012111.1.2.3 Bus2=43012239.1.2.3 LineCode=1/0_ACSR_3PH_12KV_3 Length=0.104776 units=km
New Line.242794489$P5309481T1 phases=1 Bus1=242794491.1 Bus2=247053851.1 LineCode=750_CLP_1PH_12KV_1 Length=0.004676 units=km
New Line.106479732$J354-1P phases=3 Bus1=106479734.1.2.3 Bus2=106479371.1.2.3 LineCode=1/0_CLP_3PH_12KV_3 Length=0.12377 units=km
New Line.P5383815-B$P5383812-B phases=3 Bus1=151738895.1.2.3 Bus2=151738629.1.2.3 LineCode=1/0_CLP_3PH_12KV_3 Length=0.004658 units=km
New Line.P5057367-1$185609340 phases=2 Bus1=185609343.2.3 Bus2=185609229.2.3 LineCode=350_AL_2PH_12KV_2 Length=0.002661 units=km
New Line.ND192734395$P5309481T1 phases=1 Bus1=247053851.1 Bus2=192734395.1 LineCode=750_CLP_1PH_12KV_1 Length=0.004656 units=km
New Line.196331841$P5057368-B phases=2 Bus1=42966328.2.3 Bus2=196331844.2.3 LineCode=350_AL_2PH_12KV_2 Length=0.112998 units=km
New Line.197859001$235671748 phases=2 Bus1=197859003.1.2 Bus2=235671750.1.2 LineCode=1/0_CLP_2PH_12KV_2 Length=0.022648 units=km
New Line.277E$P5006984-A phases=1 Bus1=42967037.2 Bus2=42967053.2 LineCode=350_AL_1PH_12KV_1 Length=0.064921 units=km
New Line.ND43060677$192734432 phases=3 Bus1=192734434.1.2.3 Bus2=43060677.1.2.3 LineCode=2_CLP_3PH_12KV_3 Length=0.307741 units=km
New Line.PME3018-4$192734523 phases=3 Bus1=42995497.1.2.3 Bus2=192734526.1.2.3 LineCode=750_CLP_3PH_12KV_3 Length=0.001507 units=km
New Line.ND192734395$B5333582-2 phases=1 Bus1=192734395.1 Bus2=202101687.1 LineCode=750_CLP_1PH_12KV_1 Length=0.169316 units=km
New Line.B5315567-1$ND43060677 phases=1 Bus1=43060677.3 Bus2=42993898.3 LineCode=2_CLP_1PH_12KV_1 Length=0.058074 units=km
New Line.ND192734395$B5333580-1 phases=1 Bus1=192734395.1 Bus2=42994330.1 LineCode=2_CLP_1PH_12KV_1 Length=0.254434 units=km
New Line.B5333583-1$ND192734395 phases=1 Bus1=192734395.1 Bus2=42995776.1 LineCode=750_CLP_1PH_12KV_1 Length=0.056817 units=km
New Line.ND43060677$ND43011514 phases=1 Bus1=43060677.3 Bus2=43011514.3 LineCode=2_CLP_1PH_12KV_1 Length=0.008452 units=km
New Line.GS6762-3$RCS8865-3 phases=3 Bus1=258284692.1.2.3 Bus2=116987492.1.2.3 LineCode=1000_JCN_3PH_12KV_3 Length=0.054052 units=km
New Line.167037731$196331841 phases=2 Bus1=196331843.2.3 Bus2=167037733.2.3 LineCode=350_AL_2PH_12KV_2 Length=0.067707 units=km
New Line.P5057377-A$235671748 phases=2 Bus1=235671751.1.2 Bus2=169007008.1.2 LineCode=1/0_CLP_2PH_12KV_2 Length=0.004144 units=km
New Line.PME3018-3$192734577 phases=3 Bus1=42995488.1.2.3 Bus2=192734580.1.2.3 LineCode=750_CLP_3PH_12KV_3 Length=0.00216 units=km
New Line.PME3018-2$242541103 phases=1 Bus1=42995506.1 Bus2=242541105.1 LineCode=1/0_JCN_1PH_12KV_1 Length=0.147477 units=km
New Line.B5309494-2$ND43011514 phases=1 Bus1=43011514.3 Bus2=42994123.3 LineCode=2_CLP_1PH_12KV_1 Length=0.041681 units=km
New Line.ND43011514$S5309480 phases=1 Bus1=43011514.3 Bus2=43011167.3 LineCode=2_CLP_1PH_12KV_1 Length=0.002109 units=km
New Line.ND176814126$192734523 phases=3 Bus1=192734525.1.2.3 Bus2=176814126.1.2.3 LineCode=750_CLP_3PH_12KV_3 Length=0.11211 units=km
New Line.P5057367-2$185609303 phases=2 Bus1=185609238.2.3 Bus2=185609306.2.3 LineCode=350_AL_2PH_12KV_2 Length=0.006319 units=km
New Line.P5006984-B$P5006985-2 phases=1 Bus1=42967062.2 Bus2=42967139.2 LineCode=350_AL_1PH_12KV_1 Length=0.11926 units=km